<connections>
  <connection from="p_1_0-t_1_1" to="t_1_1-t_1_2" fromLane="0" toLane="0"/>
  <connection from="t_1_2-t_1_1" to="t_1_1-p_1_0" fromLane="0" toLane="0"/>
  <connection from="p_0_1-t_1_1" to="t_1_1-t_2_1" fromLane="0" toLane="0"/>
  <connection from="t_2_1-t_1_1" to="t_1_1-p_0_1" fromLane="0" toLane="0"/>
  <connection from="p_1_0-t_1_1" to="t_1_1-p_0_1" fromLane="1" toLane="1"/>
  <connection from="t_1_2-t_1_1" to="t_1_1-t_2_1" fromLane="1" toLane="1"/>
  <connection from="p_0_1-t_1_1" to="t_1_1-t_1_2" fromLane="1" toLane="1"/>
  <connection from="t_2_1-t_1_1" to="t_1_1-p_1_0" fromLane="1" toLane="1"/>
  <connection from="p_1_0-t_1_1" to="t_1_1-t_2_1" fromLane="0" toLane="0"/>
  <connection from="t_1_2-t_1_1" to="t_1_1-p_0_1" fromLane="0" toLane="0"/>
  <connection from="p_0_1-t_1_1" to="t_1_1-p_1_0" fromLane="0" toLane="0"/>
  <connection from="t_2_1-t_1_1" to="t_1_1-t_1_2" fromLane="0" toLane="0"/>
  <connection from="t_1_1-t_1_2" to="t_1_2-t_1_3" fromLane="0" toLane="0"/>
  <connection from="t_1_3-t_1_2" to="t_1_2-t_1_1" fromLane="0" toLane="0"/>
  <connection from="p_0_2-t_1_2" to="t_1_2-t_2_2" fromLane="0" toLane="0"/>
  <connection from="t_2_2-t_1_2" to="t_1_2-p_0_2" fromLane="0" toLane="0"/>
  <connection from="t_1_1-t_1_2" to="t_1_2-p_0_2" fromLane="1" toLane="1"/>
  <connection from="t_1_3-t_1_2" to="t_1_2-t_2_2" fromLane="1" toLane="1"/>
  <connection from="p_0_2-t_1_2" to="t_1_2-t_1_3" fromLane="1" toLane="1"/>
  <connection from="t_2_2-t_1_2" to="t_1_2-t_1_1" fromLane="1" toLane="1"/>
  <connection from="t_1_1-t_1_2" to="t_1_2-t_2_2" fromLane="0" toLane="0"/>
  <connection from="t_1_3-t_1_2" to="t_1_2-p_0_2" fromLane="0" toLane="0"/>
  <connection from="p_0_2-t_1_2" to="t_1_2-t_1_1" fromLane="0" toLane="0"/>
  <connection from="t_2_2-t_1_2" to="t_1_2-t_1_3" fromLane="0" toLane="0"/>
  <connection from="t_1_2-t_1_3" to="t_1_3-p_1_4" fromLane="0" toLane="0"/>
  <connection from="p_1_4-t_1_3" to="t_1_3-t_1_2" fromLane="0" toLane="0"/>
  <connection from="p_0_3-t_1_3" to="t_1_3-t_2_3" fromLane="0" toLane="0"/>
  <connection from="t_2_3-t_1_3" to="t_1_3-p_0_3" fromLane="0" toLane="0"/>
  <connection from="t_1_2-t_1_3" to="t_1_3-p_0_3" fromLane="1" toLane="1"/>
  <connection from="p_1_4-t_1_3" to="t_1_3-t_2_3" fromLane="1" toLane="1"/>
  <connection from="p_0_3-t_1_3" to="t_1_3-p_1_4" fromLane="1" toLane="1"/>
  <connection from="t_2_3-t_1_3" to="t_1_3-t_1_2" fromLane="1" toLane="1"/>
  <connection from="t_1_2-t_1_3" to="t_1_3-t_2_3" fromLane="0" toLane="0"/>
  <connection from="p_1_4-t_1_3" to="t_1_3-p_0_3" fromLane="0" toLane="0"/>
  <connection from="p_0_3-t_1_3" to="t_1_3-t_1_2" fromLane="0" toLane="0"/>
  <connection from="t_2_3-t_1_3" to="t_1_3-p_1_4" fromLane="0" toLane="0"/>
  <connection from="p_2_0-t_2_1" to="t_2_1-t_2_2" fromLane="0" toLane="0"/>
  <connection from="t_2_2-t_2_1" to="t_2_1-p_2_0" fromLane="0" toLane="0"/>
  <connection from="t_1_1-t_2_1" to="t_2_1-t_3_1" fromLane="0" toLane="0"/>
  <connection from="t_3_1-t_2_1" to="t_2_1-t_1_1" fromLane="0" toLane="0"/>
  <connection from="p_2_0-t_2_1" to="t_2_1-t_1_1" fromLane="1" toLane="1"/>
  <connection from="t_2_2-t_2_1" to="t_2_1-t_3_1" fromLane="1" toLane="1"/>
  <connection from="t_1_1-t_2_1" to="t_2_1-t_2_2" fromLane="1" toLane="1"/>
  <connection from="t_3_1-t_2_1" to="t_2_1-p_2_0" fromLane="1" toLane="1"/>
  <connection from="p_2_0-t_2_1" to="t_2_1-t_3_1" fromLane="0" toLane="0"/>
  <connection from="t_2_2-t_2_1" to="t_2_1-t_1_1" fromLane="0" toLane="0"/>
  <connection from="t_1_1-t_2_1" to="t_2_1-p_2_0" fromLane="0" toLane="0"/>
  <connection from="t_3_1-t_2_1" to="t_2_1-t_2_2" fromLane="0" toLane="0"/>
  <connection from="t_2_1-t_2_2" to="t_2_2-t_2_3" fromLane="0" toLane="0"/>
  <connection from="t_2_3-t_2_2" to="t_2_2-t_2_1" fromLane="0" toLane="0"/>
  <connection from="t_1_2-t_2_2" to="t_2_2-t_3_2" fromLane="0" toLane="0"/>
  <connection from="t_3_2-t_2_2" to="t_2_2-t_1_2" fromLane="0" toLane="0"/>
  <connection from="t_2_1-t_2_2" to="t_2_2-t_1_2" fromLane="1" toLane="1"/>
  <connection from="t_2_3-t_2_2" to="t_2_2-t_3_2" fromLane="1" toLane="1"/>
  <connection from="t_1_2-t_2_2" to="t_2_2-t_2_3" fromLane="1" toLane="1"/>
  <connection from="t_3_2-t_2_2" to="t_2_2-t_2_1" fromLane="1" toLane="1"/>
  <connection from="t_2_1-t_2_2" to="t_2_2-t_3_2" fromLane="0" toLane="0"/>
  <connection from="t_2_3-t_2_2" to="t_2_2-t_1_2" fromLane="0" toLane="0"/>
  <connection from="t_1_2-t_2_2" to="t_2_2-t_2_1" fromLane="0" toLane="0"/>
  <connection from="t_3_2-t_2_2" to="t_2_2-t_2_3" fromLane="0" toLane="0"/>
  <connection from="t_2_2-t_2_3" to="t_2_3-p_2_4" fromLane="0" toLane="0"/>
  <connection from="p_2_4-t_2_3" to="t_2_3-t_2_2" fromLane="0" toLane="0"/>
  <connection from="t_1_3-t_2_3" to="t_2_3-t_3_3" fromLane="0" toLane="0"/>
  <connection from="t_3_3-t_2_3" to="t_2_3-t_1_3" fromLane="0" toLane="0"/>
  <connection from="t_2_2-t_2_3" to="t_2_3-t_1_3" fromLane="1" toLane="1"/>
  <connection from="p_2_4-t_2_3" to="t_2_3-t_3_3" fromLane="1" toLane="1"/>
  <connection from="t_1_3-t_2_3" to="t_2_3-p_2_4" fromLane="1" toLane="1"/>
  <connection from="t_3_3-t_2_3" to="t_2_3-t_2_2" fromLane="1" toLane="1"/>
  <connection from="t_2_2-t_2_3" to="t_2_3-t_3_3" fromLane="0" toLane="0"/>
  <connection from="p_2_4-t_2_3" to="t_2_3-t_1_3" fromLane="0" toLane="0"/>
  <connection from="t_1_3-t_2_3" to="t_2_3-t_2_2" fromLane="0" toLane="0"/>
  <connection from="t_3_3-t_2_3" to="t_2_3-p_2_4" fromLane="0" toLane="0"/>
  <connection from="p_3_0-t_3_1" to="t_3_1-t_3_2" fromLane="0" toLane="0"/>
  <connection from="t_3_2-t_3_1" to="t_3_1-p_3_0" fromLane="0" toLane="0"/>
  <connection from="t_2_1-t_3_1" to="t_3_1-p_4_1" fromLane="0" toLane="0"/>
  <connection from="p_4_1-t_3_1" to="t_3_1-t_2_1" fromLane="0" toLane="0"/>
  <connection from="p_3_0-t_3_1" to="t_3_1-t_2_1" fromLane="1" toLane="1"/>
  <connection from="t_3_2-t_3_1" to="t_3_1-p_4_1" fromLane="1" toLane="1"/>
  <connection from="t_2_1-t_3_1" to="t_3_1-t_3_2" fromLane="1" toLane="1"/>
  <connection from="p_4_1-t_3_1" to="t_3_1-p_3_0" fromLane="1" toLane="1"/>
  <connection from="p_3_0-t_3_1" to="t_3_1-p_4_1" fromLane="0" toLane="0"/>
  <connection from="t_3_2-t_3_1" to="t_3_1-t_2_1" fromLane="0" toLane="0"/>
  <connection from="t_2_1-t_3_1" to="t_3_1-p_3_0" fromLane="0" toLane="0"/>
  <connection from="p_4_1-t_3_1" to="t_3_1-t_3_2" fromLane="0" toLane="0"/>
  <connection from="t_3_1-t_3_2" to="t_3_2-t_3_3" fromLane="0" toLane="0"/>
  <connection from="t_3_3-t_3_2" to="t_3_2-t_3_1" fromLane="0" toLane="0"/>
  <connection from="t_2_2-t_3_2" to="t_3_2-p_4_2" fromLane="0" toLane="0"/>
  <connection from="p_4_2-t_3_2" to="t_3_2-t_2_2" fromLane="0" toLane="0"/>
  <connection from="t_3_1-t_3_2" to="t_3_2-t_2_2" fromLane="1" toLane="1"/>
  <connection from="t_3_3-t_3_2" to="t_3_2-p_4_2" fromLane="1" toLane="1"/>
  <connection from="t_2_2-t_3_2" to="t_3_2-t_3_3" fromLane="1" toLane="1"/>
  <connection from="p_4_2-t_3_2" to="t_3_2-t_3_1" fromLane="1" toLane="1"/>
  <connection from="t_3_1-t_3_2" to="t_3_2-p_4_2" fromLane="0" toLane="0"/>
  <connection from="t_3_3-t_3_2" to="t_3_2-t_2_2" fromLane="0" toLane="0"/>
  <connection from="t_2_2-t_3_2" to="t_3_2-t_3_1" fromLane="0" toLane="0"/>
  <connection from="p_4_2-t_3_2" to="t_3_2-t_3_3" fromLane="0" toLane="0"/>
  <connection from="t_3_2-t_3_3" to="t_3_3-p_3_4" fromLane="0" toLane="0"/>
  <connection from="p_3_4-t_3_3" to="t_3_3-t_3_2" fromLane="0" toLane="0"/>
  <connection from="t_2_3-t_3_3" to="t_3_3-p_4_3" fromLane="0" toLane="0"/>
  <connection from="p_4_3-t_3_3" to="t_3_3-t_2_3" fromLane="0" toLane="0"/>
  <connection from="t_3_2-t_3_3" to="t_3_3-t_2_3" fromLane="1" toLane="1"/>
  <connection from="p_3_4-t_3_3" to="t_3_3-p_4_3" fromLane="1" toLane="1"/>
  <connection from="t_2_3-t_3_3" to="t_3_3-p_3_4" fromLane="1" toLane="1"/>
  <connection from="p_4_3-t_3_3" to="t_3_3-t_3_2" fromLane="1" toLane="1"/>
  <connection from="t_3_2-t_3_3" to="t_3_3-p_4_3" fromLane="0" toLane="0"/>
  <connection from="p_3_4-t_3_3" to="t_3_3-t_2_3" fromLane="0" toLane="0"/>
  <connection from="t_2_3-t_3_3" to="t_3_3-t_3_2" fromLane="0" toLane="0"/>
  <connection from="p_4_3-t_3_3" to="t_3_3-p_3_4" fromLane="0" toLane="0"/>
</connections>
