<edges>
  <edge id="t_1_1-t_1_2" from="t_1_1" to="t_1_2" type="b"/>
  <edge id="t_1_1-p_1_0" from="t_1_1" to="p_1_0" type="b"/>
  <edge id="t_1_1-t_2_1" from="t_1_1" to="t_2_1" type="a"/>
  <edge id="t_1_1-p_0_1" from="t_1_1" to="p_0_1" type="a"/>
  <edge id="t_1_2-t_1_3" from="t_1_2" to="t_1_3" type="b"/>
  <edge id="t_1_2-t_1_1" from="t_1_2" to="t_1_1" type="b"/>
  <edge id="t_1_2-t_2_2" from="t_1_2" to="t_2_2" type="a"/>
  <edge id="t_1_2-p_0_2" from="t_1_2" to="p_0_2" type="a"/>
  <edge id="t_1_3-p_1_4" from="t_1_3" to="p_1_4" type="b"/>
  <edge id="t_1_3-t_1_2" from="t_1_3" to="t_1_2" type="b"/>
  <edge id="t_1_3-t_2_3" from="t_1_3" to="t_2_3" type="a"/>
  <edge id="t_1_3-p_0_3" from="t_1_3" to="p_0_3" type="a"/>
  <edge id="t_2_1-t_2_2" from="t_2_1" to="t_2_2" type="b"/>
  <edge id="t_2_1-p_2_0" from="t_2_1" to="p_2_0" type="b"/>
  <edge id="t_2_1-t_3_1" from="t_2_1" to="t_3_1" type="a"/>
  <edge id="t_2_1-t_1_1" from="t_2_1" to="t_1_1" type="a"/>
  <edge id="t_2_2-t_2_3" from="t_2_2" to="t_2_3" type="b"/>
  <edge id="t_2_2-t_2_1" from="t_2_2" to="t_2_1" type="b"/>
  <edge id="t_2_2-t_3_2" from="t_2_2" to="t_3_2" type="a"/>
  <edge id="t_2_2-t_1_2" from="t_2_2" to="t_1_2" type="a"/>
  <edge id="t_2_3-p_2_4" from="t_2_3" to="p_2_4" type="b"/>
  <edge id="t_2_3-t_2_2" from="t_2_3" to="t_2_2" type="b"/>
  <edge id="t_2_3-t_3_3" from="t_2_3" to="t_3_3" type="a"/>
  <edge id="t_2_3-t_1_3" from="t_2_3" to="t_1_3" type="a"/>
  <edge id="t_3_1-t_3_2" from="t_3_1" to="t_3_2" type="b"/>
  <edge id="t_3_1-p_3_0" from="t_3_1" to="p_3_0" type="b"/>
  <edge id="t_3_1-p_4_1" from="t_3_1" to="p_4_1" type="a"/>
  <edge id="t_3_1-t_2_1" from="t_3_1" to="t_2_1" type="a"/>
  <edge id="t_3_2-t_3_3" from="t_3_2" to="t_3_3" type="b"/>
  <edge id="t_3_2-t_3_1" from="t_3_2" to="t_3_1" type="b"/>
  <edge id="t_3_2-p_4_2" from="t_3_2" to="p_4_2" type="a"/>
  <edge id="t_3_2-t_2_2" from="t_3_2" to="t_2_2" type="a"/>
  <edge id="t_3_3-p_3_4" from="t_3_3" to="p_3_4" type="b"/>
  <edge id="t_3_3-t_3_2" from="t_3_3" to="t_3_2" type="b"/>
  <edge id="t_3_3-p_4_3" from="t_3_3" to="p_4_3" type="a"/>
  <edge id="t_3_3-t_2_3" from="t_3_3" to="t_2_3" type="a"/>
  <edge id="p_0_1-t_1_1" from="p_0_1" to="t_1_1" type="a"/>
  <edge id="p_1_0-t_1_1" from="p_1_0" to="t_1_1" type="b"/>
  <edge id="p_4_1-t_3_1" from="p_4_1" to="t_3_1" type="a"/>
  <edge id="p_1_4-t_1_3" from="p_1_4" to="t_1_3" type="b"/>
  <edge id="p_0_2-t_1_2" from="p_0_2" to="t_1_2" type="a"/>
  <edge id="p_2_0-t_2_1" from="p_2_0" to="t_2_1" type="b"/>
  <edge id="p_4_2-t_3_2" from="p_4_2" to="t_3_2" type="a"/>
  <edge id="p_2_4-t_2_3" from="p_2_4" to="t_2_3" type="b"/>
  <edge id="p_0_3-t_1_3" from="p_0_3" to="t_1_3" type="a"/>
  <edge id="p_3_0-t_3_1" from="p_3_0" to="t_3_1" type="b"/>
  <edge id="p_4_3-t_3_3" from="p_4_3" to="t_3_3" type="a"/>
  <edge id="p_3_4-t_3_3" from="p_3_4" to="t_3_3" type="b"/>
</edges>
