<additional>
  <tlLogic id="t_1_1" programID="0" offset="0" type="static">
    <phase duration="30" state="GGrrrrGGrrrr"/>
    <phase duration="3" state="yyrrrryyrrrr"/>
    <phase duration="30" state="rrGrrrrrGrrr"/>
    <phase duration="3" state="rryrrrrryrrr"/>
    <phase duration="30" state="rrrGGrrrrGGr"/>
    <phase duration="3" state="rrryyrrrryyr"/>
    <phase duration="30" state="rrrrrGrrrrrG"/>
    <phase duration="3" state="rrrrryrrrrry"/>
  </tlLogic>
  <tlLogic id="t_1_2" programID="0" offset="0" type="static">
    <phase duration="30" state="GGrrrrGGrrrr"/>
    <phase duration="3" state="yyrrrryyrrrr"/>
    <phase duration="30" state="rrGrrrrrGrrr"/>
    <phase duration="3" state="rryrrrrryrrr"/>
    <phase duration="30" state="rrrGGrrrrGGr"/>
    <phase duration="3" state="rrryyrrrryyr"/>
    <phase duration="30" state="rrrrrGrrrrrG"/>
    <phase duration="3" state="rrrrryrrrrry"/>
  </tlLogic>
  <tlLogic id="t_1_3" programID="0" offset="0" type="static">
    <phase duration="30" state="GGrrrrGGrrrr"/>
    <phase duration="3" state="yyrrrryyrrrr"/>
    <phase duration="30" state="rrGrrrrrGrrr"/>
    <phase duration="3" state="rryrrrrryrrr"/>
    <phase duration="30" state="rrrGGrrrrGGr"/>
    <phase duration="3" state="rrryyrrrryyr"/>
    <phase duration="30" state="rrrrrGrrrrrG"/>
    <phase duration="3" state="rrrrryrrrrry"/>
  </tlLogic>
  <tlLogic id="t_2_1" programID="0" offset="0" type="static">
    <phase duration="30" state="GGrrrrGGrrrr"/>
    <phase duration="3" state="yyrrrryyrrrr"/>
    <phase duration="30" state="rrGrrrrrGrrr"/>
    <phase duration="3" state="rryrrrrryrrr"/>
    <phase duration="30" state="rrrGGrrrrGGr"/>
    <phase duration="3" state="rrryyrrrryyr"/>
    <phase duration="30" state="rrrrrGrrrrrG"/>
    <phase duration="3" state="rrrrryrrrrry"/>
  </tlLogic>
  <tlLogic id="t_2_2" programID="0" offset="0" type="static">
    <phase duration="30" state="GGrrrrGGrrrr"/>
    <phase duration="3" state="yyrrrryyrrrr"/>
    <phase duration="30" state="rrGrrrrrGrrr"/>
    <phase duration="3" state="rryrrrrryrrr"/>
    <phase duration="30" state="rrrGGrrrrGGr"/>
    <phase duration="3" state="rrryyrrrryyr"/>
    <phase duration="30" state="rrrrrGrrrrrG"/>
    <phase duration="3" state="rrrrryrrrrry"/>
  </tlLogic>
  <tlLogic id="t_2_3" programID="0" offset="0" type="static">
    <phase duration="30" state="GGrrrrGGrrrr"/>
    <phase duration="3" state="yyrrrryyrrrr"/>
    <phase duration="30" state="rrGrrrrrGrrr"/>
    <phase duration="3" state="rryrrrrryrrr"/>
    <phase duration="30" state="rrrGGrrrrGGr"/>
    <phase duration="3" state="rrryyrrrryyr"/>
    <phase duration="30" state="rrrrrGrrrrrG"/>
    <phase duration="3" state="rrrrryrrrrry"/>
  </tlLogic>
  <tlLogic id="t_3_1" programID="0" offset="0" type="static">
    <phase duration="30" state="GGrrrrGGrrrr"/>
    <phase duration="3" state="yyrrrryyrrrr"/>
    <phase duration="30" state="rrGrrrrrGrrr"/>
    <phase duration="3" state="rryrrrrryrrr"/>
    <phase duration="30" state="rrrGGrrrrGGr"/>
    <phase duration="3" state="rrryyrrrryyr"/>
    <phase duration="30" state="rrrrrGrrrrrG"/>
    <phase duration="3" state="rrrrryrrrrry"/>
  </tlLogic>
  <tlLogic id="t_3_2" programID="0" offset="0" type="static">
    <phase duration="30" state="GGrrrrGGrrrr"/>
    <phase duration="3" state="yyrrrryyrrrr"/>
    <phase duration="30" state="rrGrrrrrGrrr"/>
    <phase duration="3" state="rryrrrrryrrr"/>
    <phase duration="30" state="rrrGGrrrrGGr"/>
    <phase duration="3" state="rrryyrrrryyr"/>
    <phase duration="30" state="rrrrrGrrrrrG"/>
    <phase duration="3" state="rrrrryrrrrry"/>
  </tlLogic>
  <tlLogic id="t_3_3" programID="0" offset="0" type="static">
    <phase duration="30" state="GGrrrrGGrrrr"/>
    <phase duration="3" state="yyrrrryyrrrr"/>
    <phase duration="30" state="rrGrrrrrGrrr"/>
    <phase duration="3" state="rryrrrrryrrr"/>
    <phase duration="30" state="rrrGGrrrrGGr"/>
    <phase duration="3" state="rrryyrrrryyr"/>
    <phase duration="30" state="rrrrrGrrrrrG"/>
    <phase duration="3" state="rrrrryrrrrry"/>
  </tlLogic>
</additional>
