<nodes>
  <node id="p_0_1" x="-150.00" y="0.00" type="priority"/>
  <node id="p_0_2" x="-150.00" y="200.00" type="priority"/>
  <node id="p_0_3" x="-150.00" y="400.00" type="priority"/>
  <node id="p_1_0" x="0.00" y="-150.00" type="priority"/>
  <node id="t_1_1" x="0.00" y="0.00" type="traffic_light"/>
  <node id="t_1_2" x="0.00" y="200.00" type="traffic_light"/>
  <node id="t_1_3" x="0.00" y="400.00" type="traffic_light"/>
  <node id="p_1_4" x="0.00" y="550.00" type="priority"/>
  <node id="p_2_0" x="200.00" y="-150.00" type="priority"/>
  <node id="t_2_1" x="200.00" y="0.00" type="traffic_light"/>
  <node id="t_2_2" x="200.00" y="200.00" type="traffic_light"/>
  <node id="t_2_3" x="200.00" y="400.00" type="traffic_light"/>
  <node id="p_2_4" x="200.00" y="550.00" type="priority"/>
  <node id="p_3_0" x="400.00" y="-150.00" type="priority"/>
  <node id="t_3_1" x="400.00" y="0.00" type="traffic_light"/>
  <node id="t_3_2" x="400.00" y="200.00" type="traffic_light"/>
  <node id="t_3_3" x="400.00" y="400.00" type="traffic_light"/>
  <node id="p_3_4" x="400.00" y="550.00" type="priority"/>
  <node id="p_4_1" x="550.00" y="0.00" type="priority"/>
  <node id="p_4_2" x="550.00" y="200.00" type="priority"/>
  <node id="p_4_3" x="550.00" y="400.00" type="priority"/>
</nodes>
