<?xml version="1.0" encoding="UTF-8"?>

<!-- generated on 2023-06-03 15:39:55 by Eclipse SUMO netconvert Version 1.14.1
<configuration xmlns:xsi="http://www.w3.org/2001/XMLSchema-instance" xsi:noNamespaceSchemaLocation="http://sumo.dlr.de/xsd/netconvertConfiguration.xsd">

    <input>
        <node-files value="exp.nod.xml"/>
        <edge-files value="exp.edg.xml"/>
        <connection-files value="exp.con.xml"/>
        <tllogic-files value="exp.tll.xml"/>
        <type-files value="exp.typ.xml"/>
    </input>

    <output>
        <output-file value="exp.net.xml"/>
    </output>

</configuration>
-->

<net version="1.9" junctionCornerDetail="5" limitTurnSpeed="5.50" xmlns:xsi="http://www.w3.org/2001/XMLSchema-instance" xsi:noNamespaceSchemaLocation="http://sumo.dlr.de/xsd/net_file.xsd">

    <location netOffset="150.00,150.00" convBoundary="0.00,0.00,1100.00,1100.00" origBoundary="-150.00,-150.00,950.00,950.00" projParameter="!"/>

    <type id="a" priority="2" numLanes="2" speed="20.00"/>
    <type id="b" priority="1" numLanes="2" speed="20.00"/>

    <edge id=":p_0_1_0" function="internal">
        <lane id=":p_0_1_0_0" index="0" speed="3.65" length="4.67" shape="0.00,151.60 -1.20,150.80 -1.60,150.00 -1.20,149.20 0.00,148.40"/>
    </edge>
    <edge id=":p_0_2_0" function="internal">
        <lane id=":p_0_2_0_0" index="0" speed="3.65" length="4.67" shape="0.00,351.60 -1.20,350.80 -1.60,350.00 -1.20,349.20 0.00,348.40"/>
    </edge>
    <edge id=":p_0_3_0" function="internal">
        <lane id=":p_0_3_0_0" index="0" speed="3.65" length="4.67" shape="0.00,551.60 -1.20,550.80 -1.60,550.00 -1.20,549.20 0.00,548.40"/>
    </edge>
    <edge id=":p_0_4_0" function="internal">
        <lane id=":p_0_4_0_0" index="0" speed="3.65" length="4.67" shape="0.00,751.60 -1.20,750.80 -1.60,750.00 -1.20,749.20 0.00,748.40"/>
    </edge>
    <edge id=":p_0_5_0" function="internal">
        <lane id=":p_0_5_0_0" index="0" speed="3.65" length="4.67" shape="0.00,951.60 -1.20,950.80 -1.60,950.00 -1.20,949.20 0.00,948.40"/>
    </edge>
    <edge id=":p_1_0_0" function="internal">
        <lane id=":p_1_0_0_0" index="0" speed="3.65" length="4.67" shape="148.40,0.00 149.20,-1.20 150.00,-1.60 150.80,-1.20 151.60,0.00"/>
    </edge>
    <edge id=":p_1_6_0" function="internal">
        <lane id=":p_1_6_0_0" index="0" speed="3.65" length="4.67" shape="151.60,1100.00 150.80,1101.20 150.00,1101.60 149.20,1101.20 148.40,1100.00"/>
    </edge>
    <edge id=":p_2_0_0" function="internal">
        <lane id=":p_2_0_0_0" index="0" speed="3.65" length="4.67" shape="348.40,0.00 349.20,-1.20 350.00,-1.60 350.80,-1.20 351.60,0.00"/>
    </edge>
    <edge id=":p_2_6_0" function="internal">
        <lane id=":p_2_6_0_0" index="0" speed="3.65" length="4.67" shape="351.60,1100.00 350.80,1101.20 350.00,1101.60 349.20,1101.20 348.40,1100.00"/>
    </edge>
    <edge id=":p_3_0_0" function="internal">
        <lane id=":p_3_0_0_0" index="0" speed="3.65" length="4.67" shape="548.40,0.00 549.20,-1.20 550.00,-1.60 550.80,-1.20 551.60,0.00"/>
    </edge>
    <edge id=":p_3_6_0" function="internal">
        <lane id=":p_3_6_0_0" index="0" speed="3.65" length="4.67" shape="551.60,1100.00 550.80,1101.20 550.00,1101.60 549.20,1101.20 548.40,1100.00"/>
    </edge>
    <edge id=":p_4_0_0" function="internal">
        <lane id=":p_4_0_0_0" index="0" speed="3.65" length="4.67" shape="748.40,0.00 749.20,-1.20 750.00,-1.60 750.80,-1.20 751.60,0.00"/>
    </edge>
    <edge id=":p_4_6_0" function="internal">
        <lane id=":p_4_6_0_0" index="0" speed="3.65" length="4.67" shape="751.60,1100.00 750.80,1101.20 750.00,1101.60 749.20,1101.20 748.40,1100.00"/>
    </edge>
    <edge id=":p_5_0_0" function="internal">
        <lane id=":p_5_0_0_0" index="0" speed="3.65" length="4.67" shape="948.40,0.00 949.20,-1.20 950.00,-1.60 950.80,-1.20 951.60,0.00"/>
    </edge>
    <edge id=":p_5_6_0" function="internal">
        <lane id=":p_5_6_0_0" index="0" speed="3.65" length="4.67" shape="951.60,1100.00 950.80,1101.20 950.00,1101.60 949.20,1101.20 948.40,1100.00"/>
    </edge>
    <edge id=":p_6_1_0" function="internal">
        <lane id=":p_6_1_0_0" index="0" speed="3.65" length="4.67" shape="1100.00,148.40 1101.20,149.20 1101.60,150.00 1101.20,150.80 1100.00,151.60"/>
    </edge>
    <edge id=":p_6_2_0" function="internal">
        <lane id=":p_6_2_0_0" index="0" speed="3.65" length="4.67" shape="1100.00,348.40 1101.20,349.20 1101.60,350.00 1101.20,350.80 1100.00,351.60"/>
    </edge>
    <edge id=":p_6_3_0" function="internal">
        <lane id=":p_6_3_0_0" index="0" speed="3.65" length="4.67" shape="1100.00,548.40 1101.20,549.20 1101.60,550.00 1101.20,550.80 1100.00,551.60"/>
    </edge>
    <edge id=":p_6_4_0" function="internal">
        <lane id=":p_6_4_0_0" index="0" speed="3.65" length="4.67" shape="1100.00,748.40 1101.20,749.20 1101.60,750.00 1101.20,750.80 1100.00,751.60"/>
    </edge>
    <edge id=":p_6_5_0" function="internal">
        <lane id=":p_6_5_0_0" index="0" speed="3.65" length="4.67" shape="1100.00,948.40 1101.20,949.20 1101.60,950.00 1101.20,950.80 1100.00,951.60"/>
    </edge>
    <edge id=":t_1_1_0" function="internal">
        <lane id=":t_1_1_0_0" index="0" speed="6.51" length="9.03" shape="145.20,160.40 144.85,157.95 143.80,156.20 142.05,155.15 139.60,154.80"/>
    </edge>
    <edge id=":t_1_1_1" function="internal">
        <lane id=":t_1_1_1_0" index="0" speed="20.00" length="20.80" shape="145.20,160.40 145.20,139.60"/>
    </edge>
    <edge id=":t_1_1_2" function="internal">
        <lane id=":t_1_1_2_0" index="0" speed="9.26" length="19.35" shape="148.40,160.40 149.15,155.15 151.40,151.40 155.15,149.15 160.40,148.40"/>
    </edge>
    <edge id=":t_1_1_3" function="internal">
        <lane id=":t_1_1_3_0" index="0" speed="6.51" length="9.03" shape="160.40,154.80 157.95,155.15 156.20,156.20 155.15,157.95 154.80,160.40"/>
    </edge>
    <edge id=":t_1_1_4" function="internal">
        <lane id=":t_1_1_4_0" index="0" speed="20.00" length="20.80" shape="160.40,154.80 139.60,154.80"/>
    </edge>
    <edge id=":t_1_1_5" function="internal">
        <lane id=":t_1_1_5_0" index="0" speed="9.26" length="19.35" shape="160.40,151.60 155.15,150.85 151.40,148.60 149.15,144.85 148.40,139.60"/>
    </edge>
    <edge id=":t_1_1_6" function="internal">
        <lane id=":t_1_1_6_0" index="0" speed="6.51" length="9.03" shape="154.80,139.60 155.15,142.05 156.20,143.80 157.95,144.85 160.40,145.20"/>
    </edge>
    <edge id=":t_1_1_7" function="internal">
        <lane id=":t_1_1_7_0" index="0" speed="20.00" length="20.80" shape="154.80,139.60 154.80,160.40"/>
    </edge>
    <edge id=":t_1_1_8" function="internal">
        <lane id=":t_1_1_8_0" index="0" speed="9.26" length="19.35" shape="151.60,139.60 150.85,144.85 148.60,148.60 144.85,150.85 139.60,151.60"/>
    </edge>
    <edge id=":t_1_1_9" function="internal">
        <lane id=":t_1_1_9_0" index="0" speed="6.51" length="9.03" shape="139.60,145.20 142.05,144.85 143.80,143.80 144.85,142.05 145.20,139.60"/>
    </edge>
    <edge id=":t_1_1_10" function="internal">
        <lane id=":t_1_1_10_0" index="0" speed="20.00" length="20.80" shape="139.60,145.20 160.40,145.20"/>
    </edge>
    <edge id=":t_1_1_11" function="internal">
        <lane id=":t_1_1_11_0" index="0" speed="9.26" length="19.35" shape="139.60,148.40 144.85,149.15 148.60,151.40 150.85,155.15 151.60,160.40"/>
    </edge>
    <edge id=":t_1_2_0" function="internal">
        <lane id=":t_1_2_0_0" index="0" speed="6.51" length="9.03" shape="145.20,360.40 144.85,357.95 143.80,356.20 142.05,355.15 139.60,354.80"/>
    </edge>
    <edge id=":t_1_2_1" function="internal">
        <lane id=":t_1_2_1_0" index="0" speed="20.00" length="20.80" shape="145.20,360.40 145.20,339.60"/>
    </edge>
    <edge id=":t_1_2_2" function="internal">
        <lane id=":t_1_2_2_0" index="0" speed="9.26" length="19.35" shape="148.40,360.40 149.15,355.15 151.40,351.40 155.15,349.15 160.40,348.40"/>
    </edge>
    <edge id=":t_1_2_3" function="internal">
        <lane id=":t_1_2_3_0" index="0" speed="6.51" length="9.03" shape="160.40,354.80 157.95,355.15 156.20,356.20 155.15,357.95 154.80,360.40"/>
    </edge>
    <edge id=":t_1_2_4" function="internal">
        <lane id=":t_1_2_4_0" index="0" speed="20.00" length="20.80" shape="160.40,354.80 139.60,354.80"/>
    </edge>
    <edge id=":t_1_2_5" function="internal">
        <lane id=":t_1_2_5_0" index="0" speed="9.26" length="19.35" shape="160.40,351.60 155.15,350.85 151.40,348.60 149.15,344.85 148.40,339.60"/>
    </edge>
    <edge id=":t_1_2_6" function="internal">
        <lane id=":t_1_2_6_0" index="0" speed="6.51" length="9.03" shape="154.80,339.60 155.15,342.05 156.20,343.80 157.95,344.85 160.40,345.20"/>
    </edge>
    <edge id=":t_1_2_7" function="internal">
        <lane id=":t_1_2_7_0" index="0" speed="20.00" length="20.80" shape="154.80,339.60 154.80,360.40"/>
    </edge>
    <edge id=":t_1_2_8" function="internal">
        <lane id=":t_1_2_8_0" index="0" speed="9.26" length="19.35" shape="151.60,339.60 150.85,344.85 148.60,348.60 144.85,350.85 139.60,351.60"/>
    </edge>
    <edge id=":t_1_2_9" function="internal">
        <lane id=":t_1_2_9_0" index="0" speed="6.51" length="9.03" shape="139.60,345.20 142.05,344.85 143.80,343.80 144.85,342.05 145.20,339.60"/>
    </edge>
    <edge id=":t_1_2_10" function="internal">
        <lane id=":t_1_2_10_0" index="0" speed="20.00" length="20.80" shape="139.60,345.20 160.40,345.20"/>
    </edge>
    <edge id=":t_1_2_11" function="internal">
        <lane id=":t_1_2_11_0" index="0" speed="9.26" length="19.35" shape="139.60,348.40 144.85,349.15 148.60,351.40 150.85,355.15 151.60,360.40"/>
    </edge>
    <edge id=":t_1_3_0" function="internal">
        <lane id=":t_1_3_0_0" index="0" speed="6.51" length="9.03" shape="145.20,560.40 144.85,557.95 143.80,556.20 142.05,555.15 139.60,554.80"/>
    </edge>
    <edge id=":t_1_3_1" function="internal">
        <lane id=":t_1_3_1_0" index="0" speed="20.00" length="20.80" shape="145.20,560.40 145.20,539.60"/>
    </edge>
    <edge id=":t_1_3_2" function="internal">
        <lane id=":t_1_3_2_0" index="0" speed="9.26" length="19.35" shape="148.40,560.40 149.15,555.15 151.40,551.40 155.15,549.15 160.40,548.40"/>
    </edge>
    <edge id=":t_1_3_3" function="internal">
        <lane id=":t_1_3_3_0" index="0" speed="6.51" length="9.03" shape="160.40,554.80 157.95,555.15 156.20,556.20 155.15,557.95 154.80,560.40"/>
    </edge>
    <edge id=":t_1_3_4" function="internal">
        <lane id=":t_1_3_4_0" index="0" speed="20.00" length="20.80" shape="160.40,554.80 139.60,554.80"/>
    </edge>
    <edge id=":t_1_3_5" function="internal">
        <lane id=":t_1_3_5_0" index="0" speed="9.26" length="19.35" shape="160.40,551.60 155.15,550.85 151.40,548.60 149.15,544.85 148.40,539.60"/>
    </edge>
    <edge id=":t_1_3_6" function="internal">
        <lane id=":t_1_3_6_0" index="0" speed="6.51" length="9.03" shape="154.80,539.60 155.15,542.05 156.20,543.80 157.95,544.85 160.40,545.20"/>
    </edge>
    <edge id=":t_1_3_7" function="internal">
        <lane id=":t_1_3_7_0" index="0" speed="20.00" length="20.80" shape="154.80,539.60 154.80,560.40"/>
    </edge>
    <edge id=":t_1_3_8" function="internal">
        <lane id=":t_1_3_8_0" index="0" speed="9.26" length="19.35" shape="151.60,539.60 150.85,544.85 148.60,548.60 144.85,550.85 139.60,551.60"/>
    </edge>
    <edge id=":t_1_3_9" function="internal">
        <lane id=":t_1_3_9_0" index="0" speed="6.51" length="9.03" shape="139.60,545.20 142.05,544.85 143.80,543.80 144.85,542.05 145.20,539.60"/>
    </edge>
    <edge id=":t_1_3_10" function="internal">
        <lane id=":t_1_3_10_0" index="0" speed="20.00" length="20.80" shape="139.60,545.20 160.40,545.20"/>
    </edge>
    <edge id=":t_1_3_11" function="internal">
        <lane id=":t_1_3_11_0" index="0" speed="9.26" length="19.35" shape="139.60,548.40 144.85,549.15 148.60,551.40 150.85,555.15 151.60,560.40"/>
    </edge>
    <edge id=":t_1_4_0" function="internal">
        <lane id=":t_1_4_0_0" index="0" speed="6.51" length="9.03" shape="145.20,760.40 144.85,757.95 143.80,756.20 142.05,755.15 139.60,754.80"/>
    </edge>
    <edge id=":t_1_4_1" function="internal">
        <lane id=":t_1_4_1_0" index="0" speed="20.00" length="20.80" shape="145.20,760.40 145.20,739.60"/>
    </edge>
    <edge id=":t_1_4_2" function="internal">
        <lane id=":t_1_4_2_0" index="0" speed="9.26" length="19.35" shape="148.40,760.40 149.15,755.15 151.40,751.40 155.15,749.15 160.40,748.40"/>
    </edge>
    <edge id=":t_1_4_3" function="internal">
        <lane id=":t_1_4_3_0" index="0" speed="6.51" length="9.03" shape="160.40,754.80 157.95,755.15 156.20,756.20 155.15,757.95 154.80,760.40"/>
    </edge>
    <edge id=":t_1_4_4" function="internal">
        <lane id=":t_1_4_4_0" index="0" speed="20.00" length="20.80" shape="160.40,754.80 139.60,754.80"/>
    </edge>
    <edge id=":t_1_4_5" function="internal">
        <lane id=":t_1_4_5_0" index="0" speed="9.26" length="19.35" shape="160.40,751.60 155.15,750.85 151.40,748.60 149.15,744.85 148.40,739.60"/>
    </edge>
    <edge id=":t_1_4_6" function="internal">
        <lane id=":t_1_4_6_0" index="0" speed="6.51" length="9.03" shape="154.80,739.60 155.15,742.05 156.20,743.80 157.95,744.85 160.40,745.20"/>
    </edge>
    <edge id=":t_1_4_7" function="internal">
        <lane id=":t_1_4_7_0" index="0" speed="20.00" length="20.80" shape="154.80,739.60 154.80,760.40"/>
    </edge>
    <edge id=":t_1_4_8" function="internal">
        <lane id=":t_1_4_8_0" index="0" speed="9.26" length="19.35" shape="151.60,739.60 150.85,744.85 148.60,748.60 144.85,750.85 139.60,751.60"/>
    </edge>
    <edge id=":t_1_4_9" function="internal">
        <lane id=":t_1_4_9_0" index="0" speed="6.51" length="9.03" shape="139.60,745.20 142.05,744.85 143.80,743.80 144.85,742.05 145.20,739.60"/>
    </edge>
    <edge id=":t_1_4_10" function="internal">
        <lane id=":t_1_4_10_0" index="0" speed="20.00" length="20.80" shape="139.60,745.20 160.40,745.20"/>
    </edge>
    <edge id=":t_1_4_11" function="internal">
        <lane id=":t_1_4_11_0" index="0" speed="9.26" length="19.35" shape="139.60,748.40 144.85,749.15 148.60,751.40 150.85,755.15 151.60,760.40"/>
    </edge>
    <edge id=":t_1_5_0" function="internal">
        <lane id=":t_1_5_0_0" index="0" speed="6.51" length="9.03" shape="145.20,960.40 144.85,957.95 143.80,956.20 142.05,955.15 139.60,954.80"/>
    </edge>
    <edge id=":t_1_5_1" function="internal">
        <lane id=":t_1_5_1_0" index="0" speed="20.00" length="20.80" shape="145.20,960.40 145.20,939.60"/>
    </edge>
    <edge id=":t_1_5_2" function="internal">
        <lane id=":t_1_5_2_0" index="0" speed="9.26" length="19.35" shape="148.40,960.40 149.15,955.15 151.40,951.40 155.15,949.15 160.40,948.40"/>
    </edge>
    <edge id=":t_1_5_3" function="internal">
        <lane id=":t_1_5_3_0" index="0" speed="6.51" length="9.03" shape="160.40,954.80 157.95,955.15 156.20,956.20 155.15,957.95 154.80,960.40"/>
    </edge>
    <edge id=":t_1_5_4" function="internal">
        <lane id=":t_1_5_4_0" index="0" speed="20.00" length="20.80" shape="160.40,954.80 139.60,954.80"/>
    </edge>
    <edge id=":t_1_5_5" function="internal">
        <lane id=":t_1_5_5_0" index="0" speed="9.26" length="19.35" shape="160.40,951.60 155.15,950.85 151.40,948.60 149.15,944.85 148.40,939.60"/>
    </edge>
    <edge id=":t_1_5_6" function="internal">
        <lane id=":t_1_5_6_0" index="0" speed="6.51" length="9.03" shape="154.80,939.60 155.15,942.05 156.20,943.80 157.95,944.85 160.40,945.20"/>
    </edge>
    <edge id=":t_1_5_7" function="internal">
        <lane id=":t_1_5_7_0" index="0" speed="20.00" length="20.80" shape="154.80,939.60 154.80,960.40"/>
    </edge>
    <edge id=":t_1_5_8" function="internal">
        <lane id=":t_1_5_8_0" index="0" speed="9.26" length="19.35" shape="151.60,939.60 150.85,944.85 148.60,948.60 144.85,950.85 139.60,951.60"/>
    </edge>
    <edge id=":t_1_5_9" function="internal">
        <lane id=":t_1_5_9_0" index="0" speed="6.51" length="9.03" shape="139.60,945.20 142.05,944.85 143.80,943.80 144.85,942.05 145.20,939.60"/>
    </edge>
    <edge id=":t_1_5_10" function="internal">
        <lane id=":t_1_5_10_0" index="0" speed="20.00" length="20.80" shape="139.60,945.20 160.40,945.20"/>
    </edge>
    <edge id=":t_1_5_11" function="internal">
        <lane id=":t_1_5_11_0" index="0" speed="9.26" length="19.35" shape="139.60,948.40 144.85,949.15 148.60,951.40 150.85,955.15 151.60,960.40"/>
    </edge>
    <edge id=":t_2_1_0" function="internal">
        <lane id=":t_2_1_0_0" index="0" speed="6.51" length="9.03" shape="345.20,160.40 344.85,157.95 343.80,156.20 342.05,155.15 339.60,154.80"/>
    </edge>
    <edge id=":t_2_1_1" function="internal">
        <lane id=":t_2_1_1_0" index="0" speed="20.00" length="20.80" shape="345.20,160.40 345.20,139.60"/>
    </edge>
    <edge id=":t_2_1_2" function="internal">
        <lane id=":t_2_1_2_0" index="0" speed="9.26" length="19.35" shape="348.40,160.40 349.15,155.15 351.40,151.40 355.15,149.15 360.40,148.40"/>
    </edge>
    <edge id=":t_2_1_3" function="internal">
        <lane id=":t_2_1_3_0" index="0" speed="6.51" length="9.03" shape="360.40,154.80 357.95,155.15 356.20,156.20 355.15,157.95 354.80,160.40"/>
    </edge>
    <edge id=":t_2_1_4" function="internal">
        <lane id=":t_2_1_4_0" index="0" speed="20.00" length="20.80" shape="360.40,154.80 339.60,154.80"/>
    </edge>
    <edge id=":t_2_1_5" function="internal">
        <lane id=":t_2_1_5_0" index="0" speed="9.26" length="19.35" shape="360.40,151.60 355.15,150.85 351.40,148.60 349.15,144.85 348.40,139.60"/>
    </edge>
    <edge id=":t_2_1_6" function="internal">
        <lane id=":t_2_1_6_0" index="0" speed="6.51" length="9.03" shape="354.80,139.60 355.15,142.05 356.20,143.80 357.95,144.85 360.40,145.20"/>
    </edge>
    <edge id=":t_2_1_7" function="internal">
        <lane id=":t_2_1_7_0" index="0" speed="20.00" length="20.80" shape="354.80,139.60 354.80,160.40"/>
    </edge>
    <edge id=":t_2_1_8" function="internal">
        <lane id=":t_2_1_8_0" index="0" speed="9.26" length="19.35" shape="351.60,139.60 350.85,144.85 348.60,148.60 344.85,150.85 339.60,151.60"/>
    </edge>
    <edge id=":t_2_1_9" function="internal">
        <lane id=":t_2_1_9_0" index="0" speed="6.51" length="9.03" shape="339.60,145.20 342.05,144.85 343.80,143.80 344.85,142.05 345.20,139.60"/>
    </edge>
    <edge id=":t_2_1_10" function="internal">
        <lane id=":t_2_1_10_0" index="0" speed="20.00" length="20.80" shape="339.60,145.20 360.40,145.20"/>
    </edge>
    <edge id=":t_2_1_11" function="internal">
        <lane id=":t_2_1_11_0" index="0" speed="9.26" length="19.35" shape="339.60,148.40 344.85,149.15 348.60,151.40 350.85,155.15 351.60,160.40"/>
    </edge>
    <edge id=":t_2_2_0" function="internal">
        <lane id=":t_2_2_0_0" index="0" speed="6.51" length="9.03" shape="345.20,360.40 344.85,357.95 343.80,356.20 342.05,355.15 339.60,354.80"/>
    </edge>
    <edge id=":t_2_2_1" function="internal">
        <lane id=":t_2_2_1_0" index="0" speed="20.00" length="20.80" shape="345.20,360.40 345.20,339.60"/>
    </edge>
    <edge id=":t_2_2_2" function="internal">
        <lane id=":t_2_2_2_0" index="0" speed="9.26" length="19.35" shape="348.40,360.40 349.15,355.15 351.40,351.40 355.15,349.15 360.40,348.40"/>
    </edge>
    <edge id=":t_2_2_3" function="internal">
        <lane id=":t_2_2_3_0" index="0" speed="6.51" length="9.03" shape="360.40,354.80 357.95,355.15 356.20,356.20 355.15,357.95 354.80,360.40"/>
    </edge>
    <edge id=":t_2_2_4" function="internal">
        <lane id=":t_2_2_4_0" index="0" speed="20.00" length="20.80" shape="360.40,354.80 339.60,354.80"/>
    </edge>
    <edge id=":t_2_2_5" function="internal">
        <lane id=":t_2_2_5_0" index="0" speed="9.26" length="19.35" shape="360.40,351.60 355.15,350.85 351.40,348.60 349.15,344.85 348.40,339.60"/>
    </edge>
    <edge id=":t_2_2_6" function="internal">
        <lane id=":t_2_2_6_0" index="0" speed="6.51" length="9.03" shape="354.80,339.60 355.15,342.05 356.20,343.80 357.95,344.85 360.40,345.20"/>
    </edge>
    <edge id=":t_2_2_7" function="internal">
        <lane id=":t_2_2_7_0" index="0" speed="20.00" length="20.80" shape="354.80,339.60 354.80,360.40"/>
    </edge>
    <edge id=":t_2_2_8" function="internal">
        <lane id=":t_2_2_8_0" index="0" speed="9.26" length="19.35" shape="351.60,339.60 350.85,344.85 348.60,348.60 344.85,350.85 339.60,351.60"/>
    </edge>
    <edge id=":t_2_2_9" function="internal">
        <lane id=":t_2_2_9_0" index="0" speed="6.51" length="9.03" shape="339.60,345.20 342.05,344.85 343.80,343.80 344.85,342.05 345.20,339.60"/>
    </edge>
    <edge id=":t_2_2_10" function="internal">
        <lane id=":t_2_2_10_0" index="0" speed="20.00" length="20.80" shape="339.60,345.20 360.40,345.20"/>
    </edge>
    <edge id=":t_2_2_11" function="internal">
        <lane id=":t_2_2_11_0" index="0" speed="9.26" length="19.35" shape="339.60,348.40 344.85,349.15 348.60,351.40 350.85,355.15 351.60,360.40"/>
    </edge>
    <edge id=":t_2_3_0" function="internal">
        <lane id=":t_2_3_0_0" index="0" speed="6.51" length="9.03" shape="345.20,560.40 344.85,557.95 343.80,556.20 342.05,555.15 339.60,554.80"/>
    </edge>
    <edge id=":t_2_3_1" function="internal">
        <lane id=":t_2_3_1_0" index="0" speed="20.00" length="20.80" shape="345.20,560.40 345.20,539.60"/>
    </edge>
    <edge id=":t_2_3_2" function="internal">
        <lane id=":t_2_3_2_0" index="0" speed="9.26" length="19.35" shape="348.40,560.40 349.15,555.15 351.40,551.40 355.15,549.15 360.40,548.40"/>
    </edge>
    <edge id=":t_2_3_3" function="internal">
        <lane id=":t_2_3_3_0" index="0" speed="6.51" length="9.03" shape="360.40,554.80 357.95,555.15 356.20,556.20 355.15,557.95 354.80,560.40"/>
    </edge>
    <edge id=":t_2_3_4" function="internal">
        <lane id=":t_2_3_4_0" index="0" speed="20.00" length="20.80" shape="360.40,554.80 339.60,554.80"/>
    </edge>
    <edge id=":t_2_3_5" function="internal">
        <lane id=":t_2_3_5_0" index="0" speed="9.26" length="19.35" shape="360.40,551.60 355.15,550.85 351.40,548.60 349.15,544.85 348.40,539.60"/>
    </edge>
    <edge id=":t_2_3_6" function="internal">
        <lane id=":t_2_3_6_0" index="0" speed="6.51" length="9.03" shape="354.80,539.60 355.15,542.05 356.20,543.80 357.95,544.85 360.40,545.20"/>
    </edge>
    <edge id=":t_2_3_7" function="internal">
        <lane id=":t_2_3_7_0" index="0" speed="20.00" length="20.80" shape="354.80,539.60 354.80,560.40"/>
    </edge>
    <edge id=":t_2_3_8" function="internal">
        <lane id=":t_2_3_8_0" index="0" speed="9.26" length="19.35" shape="351.60,539.60 350.85,544.85 348.60,548.60 344.85,550.85 339.60,551.60"/>
    </edge>
    <edge id=":t_2_3_9" function="internal">
        <lane id=":t_2_3_9_0" index="0" speed="6.51" length="9.03" shape="339.60,545.20 342.05,544.85 343.80,543.80 344.85,542.05 345.20,539.60"/>
    </edge>
    <edge id=":t_2_3_10" function="internal">
        <lane id=":t_2_3_10_0" index="0" speed="20.00" length="20.80" shape="339.60,545.20 360.40,545.20"/>
    </edge>
    <edge id=":t_2_3_11" function="internal">
        <lane id=":t_2_3_11_0" index="0" speed="9.26" length="19.35" shape="339.60,548.40 344.85,549.15 348.60,551.40 350.85,555.15 351.60,560.40"/>
    </edge>
    <edge id=":t_2_4_0" function="internal">
        <lane id=":t_2_4_0_0" index="0" speed="6.51" length="9.03" shape="345.20,760.40 344.85,757.95 343.80,756.20 342.05,755.15 339.60,754.80"/>
    </edge>
    <edge id=":t_2_4_1" function="internal">
        <lane id=":t_2_4_1_0" index="0" speed="20.00" length="20.80" shape="345.20,760.40 345.20,739.60"/>
    </edge>
    <edge id=":t_2_4_2" function="internal">
        <lane id=":t_2_4_2_0" index="0" speed="9.26" length="19.35" shape="348.40,760.40 349.15,755.15 351.40,751.40 355.15,749.15 360.40,748.40"/>
    </edge>
    <edge id=":t_2_4_3" function="internal">
        <lane id=":t_2_4_3_0" index="0" speed="6.51" length="9.03" shape="360.40,754.80 357.95,755.15 356.20,756.20 355.15,757.95 354.80,760.40"/>
    </edge>
    <edge id=":t_2_4_4" function="internal">
        <lane id=":t_2_4_4_0" index="0" speed="20.00" length="20.80" shape="360.40,754.80 339.60,754.80"/>
    </edge>
    <edge id=":t_2_4_5" function="internal">
        <lane id=":t_2_4_5_0" index="0" speed="9.26" length="19.35" shape="360.40,751.60 355.15,750.85 351.40,748.60 349.15,744.85 348.40,739.60"/>
    </edge>
    <edge id=":t_2_4_6" function="internal">
        <lane id=":t_2_4_6_0" index="0" speed="6.51" length="9.03" shape="354.80,739.60 355.15,742.05 356.20,743.80 357.95,744.85 360.40,745.20"/>
    </edge>
    <edge id=":t_2_4_7" function="internal">
        <lane id=":t_2_4_7_0" index="0" speed="20.00" length="20.80" shape="354.80,739.60 354.80,760.40"/>
    </edge>
    <edge id=":t_2_4_8" function="internal">
        <lane id=":t_2_4_8_0" index="0" speed="9.26" length="19.35" shape="351.60,739.60 350.85,744.85 348.60,748.60 344.85,750.85 339.60,751.60"/>
    </edge>
    <edge id=":t_2_4_9" function="internal">
        <lane id=":t_2_4_9_0" index="0" speed="6.51" length="9.03" shape="339.60,745.20 342.05,744.85 343.80,743.80 344.85,742.05 345.20,739.60"/>
    </edge>
    <edge id=":t_2_4_10" function="internal">
        <lane id=":t_2_4_10_0" index="0" speed="20.00" length="20.80" shape="339.60,745.20 360.40,745.20"/>
    </edge>
    <edge id=":t_2_4_11" function="internal">
        <lane id=":t_2_4_11_0" index="0" speed="9.26" length="19.35" shape="339.60,748.40 344.85,749.15 348.60,751.40 350.85,755.15 351.60,760.40"/>
    </edge>
    <edge id=":t_2_5_0" function="internal">
        <lane id=":t_2_5_0_0" index="0" speed="6.51" length="9.03" shape="345.20,960.40 344.85,957.95 343.80,956.20 342.05,955.15 339.60,954.80"/>
    </edge>
    <edge id=":t_2_5_1" function="internal">
        <lane id=":t_2_5_1_0" index="0" speed="20.00" length="20.80" shape="345.20,960.40 345.20,939.60"/>
    </edge>
    <edge id=":t_2_5_2" function="internal">
        <lane id=":t_2_5_2_0" index="0" speed="9.26" length="19.35" shape="348.40,960.40 349.15,955.15 351.40,951.40 355.15,949.15 360.40,948.40"/>
    </edge>
    <edge id=":t_2_5_3" function="internal">
        <lane id=":t_2_5_3_0" index="0" speed="6.51" length="9.03" shape="360.40,954.80 357.95,955.15 356.20,956.20 355.15,957.95 354.80,960.40"/>
    </edge>
    <edge id=":t_2_5_4" function="internal">
        <lane id=":t_2_5_4_0" index="0" speed="20.00" length="20.80" shape="360.40,954.80 339.60,954.80"/>
    </edge>
    <edge id=":t_2_5_5" function="internal">
        <lane id=":t_2_5_5_0" index="0" speed="9.26" length="19.35" shape="360.40,951.60 355.15,950.85 351.40,948.60 349.15,944.85 348.40,939.60"/>
    </edge>
    <edge id=":t_2_5_6" function="internal">
        <lane id=":t_2_5_6_0" index="0" speed="6.51" length="9.03" shape="354.80,939.60 355.15,942.05 356.20,943.80 357.95,944.85 360.40,945.20"/>
    </edge>
    <edge id=":t_2_5_7" function="internal">
        <lane id=":t_2_5_7_0" index="0" speed="20.00" length="20.80" shape="354.80,939.60 354.80,960.40"/>
    </edge>
    <edge id=":t_2_5_8" function="internal">
        <lane id=":t_2_5_8_0" index="0" speed="9.26" length="19.35" shape="351.60,939.60 350.85,944.85 348.60,948.60 344.85,950.85 339.60,951.60"/>
    </edge>
    <edge id=":t_2_5_9" function="internal">
        <lane id=":t_2_5_9_0" index="0" speed="6.51" length="9.03" shape="339.60,945.20 342.05,944.85 343.80,943.80 344.85,942.05 345.20,939.60"/>
    </edge>
    <edge id=":t_2_5_10" function="internal">
        <lane id=":t_2_5_10_0" index="0" speed="20.00" length="20.80" shape="339.60,945.20 360.40,945.20"/>
    </edge>
    <edge id=":t_2_5_11" function="internal">
        <lane id=":t_2_5_11_0" index="0" speed="9.26" length="19.35" shape="339.60,948.40 344.85,949.15 348.60,951.40 350.85,955.15 351.60,960.40"/>
    </edge>
    <edge id=":t_3_1_0" function="internal">
        <lane id=":t_3_1_0_0" index="0" speed="6.51" length="9.03" shape="545.20,160.40 544.85,157.95 543.80,156.20 542.05,155.15 539.60,154.80"/>
    </edge>
    <edge id=":t_3_1_1" function="internal">
        <lane id=":t_3_1_1_0" index="0" speed="20.00" length="20.80" shape="545.20,160.40 545.20,139.60"/>
    </edge>
    <edge id=":t_3_1_2" function="internal">
        <lane id=":t_3_1_2_0" index="0" speed="9.26" length="19.35" shape="548.40,160.40 549.15,155.15 551.40,151.40 555.15,149.15 560.40,148.40"/>
    </edge>
    <edge id=":t_3_1_3" function="internal">
        <lane id=":t_3_1_3_0" index="0" speed="6.51" length="9.03" shape="560.40,154.80 557.95,155.15 556.20,156.20 555.15,157.95 554.80,160.40"/>
    </edge>
    <edge id=":t_3_1_4" function="internal">
        <lane id=":t_3_1_4_0" index="0" speed="20.00" length="20.80" shape="560.40,154.80 539.60,154.80"/>
    </edge>
    <edge id=":t_3_1_5" function="internal">
        <lane id=":t_3_1_5_0" index="0" speed="9.26" length="19.35" shape="560.40,151.60 555.15,150.85 551.40,148.60 549.15,144.85 548.40,139.60"/>
    </edge>
    <edge id=":t_3_1_6" function="internal">
        <lane id=":t_3_1_6_0" index="0" speed="6.51" length="9.03" shape="554.80,139.60 555.15,142.05 556.20,143.80 557.95,144.85 560.40,145.20"/>
    </edge>
    <edge id=":t_3_1_7" function="internal">
        <lane id=":t_3_1_7_0" index="0" speed="20.00" length="20.80" shape="554.80,139.60 554.80,160.40"/>
    </edge>
    <edge id=":t_3_1_8" function="internal">
        <lane id=":t_3_1_8_0" index="0" speed="9.26" length="19.35" shape="551.60,139.60 550.85,144.85 548.60,148.60 544.85,150.85 539.60,151.60"/>
    </edge>
    <edge id=":t_3_1_9" function="internal">
        <lane id=":t_3_1_9_0" index="0" speed="6.51" length="9.03" shape="539.60,145.20 542.05,144.85 543.80,143.80 544.85,142.05 545.20,139.60"/>