<connections>
  <connection from="p_1_0-t_1_1" to="t_1_1-t_1_2" fromLane="0" toLane="0"/>
  <connection from="t_1_2-t_1_1" to="t_1_1-p_1_0" fromLane="0" toLane="0"/>
  <connection from="p_0_1-t_1_1" to="t_1_1-t_2_1" fromLane="0" toLane="0"/>
  <connection from="t_2_1-t_1_1" to="t_1_1-p_0_1" fromLane="0" toLane="0"/>
  <connection from="p_1_0-t_1_1" to="t_1_1-p_0_1" fromLane="1" toLane="1"/>
  <connection from="t_1_2-t_1_1" to="t_1_1-t_2_1" fromLane="1" toLane="1"/>
  <connection from="p_0_1-t_1_1" to="t_1_1-t_1_2" fromLane="1" toLane="1"/>
  <connection from="t_2_1-t_1_1" to="t_1_1-p_1_0" fromLane="1" toLane="1"/>
  <connection from="p_1_0-t_1_1" to="t_1_1-t_2_1" fromLane="0" toLane="0"/>
  <connection from="t_1_2-t_1_1" to="t_1_1-p_0_1" fromLane="0" toLane="0"/>
  <connection from="p_0_1-t_1_1" to="t_1_1-p_1_0" fromLane="0" toLane="0"/>
  <connection from="t_2_1-t_1_1" to="t_1_1-t_1_2" fromLane="0" toLane="0"/>
  <connection from="t_1_1-t_1_2" to="t_1_2-t_1_3" fromLane="0" toLane="0"/>
  <connection from="t_1_3-t_1_2" to="t_1_2-t_1_1" fromLane="0" toLane="0"/>
  <connection from="p_0_2-t_1_2" to="t_1_2-t_2_2" fromLane="0" toLane="0"/>
  <connection from="t_2_2-t_1_2" to="t_1_2-p_0_2" fromLane="0" toLane="0"/>
  <connection from="t_1_1-t_1_2" to="t_1_2-p_0_2" fromLane="1" toLane="1"/>
  <connection from="t_1_3-t_1_2" to="t_1_2-t_2_2" fromLane="1" toLane="1"/>
  <connection from="p_0_2-t_1_2" to="t_1_2-t_1_3" fromLane="1" toLane="1"/>
  <connection from="t_2_2-t_1_2" to="t_1_2-t_1_1" fromLane="1" toLane="1"/>
  <connection from="t_1_1-t_1_2" to="t_1_2-t_2_2" fromLane="0" toLane="0"/>
  <connection from="t_1_3-t_1_2" to="t_1_2-p_0_2" fromLane="0" toLane="0"/>
  <connection from="p_0_2-t_1_2" to="t_1_2-t_1_1" fromLane="0" toLane="0"/>
  <connection from="t_2_2-t_1_2" to="t_1_2-t_1_3" fromLane="0" toLane="0"/>
  <connection from="t_1_2-t_1_3" to="t_1_3-t_1_4" fromLane="0" toLane="0"/>
  <connection from="t_1_4-t_1_3" to="t_1_3-t_1_2" fromLane="0" toLane="0"/>
  <connection from="p_0_3-t_1_3" to="t_1_3-t_2_3" fromLane="0" toLane="0"/>
  <connection from="t_2_3-t_1_3" to="t_1_3-p_0_3" fromLane="0" toLane="0"/>
  <connection from="t_1_2-t_1_3" to="t_1_3-p_0_3" fromLane="1" toLane="1"/>
  <connection from="t_1_4-t_1_3" to="t_1_3-t_2_3" fromLane="1" toLane="1"/>
  <connection from="p_0_3-t_1_3" to="t_1_3-t_1_4" fromLane="1" toLane="1"/>
  <connection from="t_2_3-t_1_3" to="t_1_3-t_1_2" fromLane="1" toLane="1"/>
  <connection from="t_1_2-t_1_3" to="t_1_3-t_2_3" fromLane="0" toLane="0"/>
  <connection from="t_1_4-t_1_3" to="t_1_3-p_0_3" fromLane="0" toLane="0"/>
  <connection from="p_0_3-t_1_3" to="t_1_3-t_1_2" fromLane="0" toLane="0"/>
  <connection from="t_2_3-t_1_3" to="t_1_3-t_1_4" fromLane="0" toLane="0"/>
  <connection from="t_1_3-t_1_4" to="t_1_4-t_1_5" fromLane="0" toLane="0"/>
  <connection from="t_1_5-t_1_4" to="t_1_4-t_1_3" fromLane="0" toLane="0"/>
  <connection from="p_0_4-t_1_4" to="t_1_4-t_2_4" fromLane="0" toLane="0"/>
  <connection from="t_2_4-t_1_4" to="t_1_4-p_0_4" fromLane="0" toLane="0"/>
  <connection from="t_1_3-t_1_4" to="t_1_4-p_0_4" fromLane="1" toLane="1"/>
  <connection from="t_1_5-t_1_4" to="t_1_4-t_2_4" fromLane="1" toLane="1"/>
  <connection from="p_0_4-t_1_4" to="t_1_4-t_1_5" fromLane="1" toLane="1"/>
  <connection from="t_2_4-t_1_4" to="t_1_4-t_1_3" fromLane="1" toLane="1"/>
  <connection from="t_1_3-t_1_4" to="t_1_4-t_2_4" fromLane="0" toLane="0"/>
  <connection from="t_1_5-t_1_4" to="t_1_4-p_0_4" fromLane="0" toLane="0"/>
  <connection from="p_0_4-t_1_4" to="t_1_4-t_1_3" fromLane="0" toLane="0"/>
  <connection from="t_2_4-t_1_4" to="t_1_4-t_1_5" fromLane="0" toLane="0"/>
  <connection from="t_1_4-t_1_5" to="t_1_5-p_1_6" fromLane="0" toLane="0"/>
  <connection from="p_1_6-t_1_5" to="t_1_5-t_1_4" fromLane="0" toLane="0"/>
  <connection from="p_0_5-t_1_5" to="t_1_5-t_2_5" fromLane="0" toLane="0"/>
  <connection from="t_2_5-t_1_5" to="t_1_5-p_0_5" fromLane="0" toLane="0"/>
  <connection from="t_1_4-t_1_5" to="t_1_5-p_0_5" fromLane="1" toLane="1"/>
  <connection from="p_1_6-t_1_5" to="t_1_5-t_2_5" fromLane="1" toLane="1"/>
  <connection from="p_0_5-t_1_5" to="t_1_5-p_1_6" fromLane="1" toLane="1"/>
  <connection from="t_2_5-t_1_5" to="t_1_5-t_1_4" fromLane="1" toLane="1"/>
  <connection from="t_1_4-t_1_5" to="t_1_5-t_2_5" fromLane="0" toLane="0"/>
  <connection from="p_1_6-t_1_5" to="t_1_5-p_0_5" fromLane="0" toLane="0"/>
  <connection from="p_0_5-t_1_5" to="t_1_5-t_1_4" fromLane="0" toLane="0"/>
  <connection from="t_2_5-t_1_5" to="t_1_5-p_1_6" fromLane="0" toLane="0"/>
  <connection from="p_2_0-t_2_1" to="t_2_1-t_2_2" fromLane="0" toLane="0"/>
  <connection from="t_2_2-t_2_1" to="t_2_1-p_2_0" fromLane="0" toLane="0"/>
  <connection from="t_1_1-t_2_1" to="t_2_1-t_3_1" fromLane="0" toLane="0"/>
  <connection from="t_3_1-t_2_1" to="t_2_1-t_1_1" fromLane="0" toLane="0"/>
  <connection from="p_2_0-t_2_1" to="t_2_1-t_1_1" fromLane="1" toLane="1"/>
  <connection from="t_2_2-t_2_1" to="t_2_1-t_3_1" fromLane="1" toLane="1"/>
  <connection from="t_1_1-t_2_1" to="t_2_1-t_2_2" fromLane="1" toLane="1"/>
  <connection from="t_3_1-t_2_1" to="t_2_1-p_2_0" fromLane="1" toLane="1"/>
  <connection from="p_2_0-t_2_1" to="t_2_1-t_3_1" fromLane="0" toLane="0"/>
  <connection from="t_2_2-t_2_1" to="t_2_1-t_1_1" fromLane="0" toLane="0"/>
  <connection from="t_1_1-t_2_1" to="t_2_1-p_2_0" fromLane="0" toLane="0"/>
  <connection from="t_3_1-t_2_1" to="t_2_1-t_2_2" fromLane="0" toLane="0"/>
  <connection from="t_2_1-t_2_2" to="t_2_2-t_2_3" fromLane="0" toLane="0"/>
  <connection from="t_2_3-t_2_2" to="t_2_2-t_2_1" fromLane="0" toLane="0"/>
  <connection from="t_1_2-t_2_2" to="t_2_2-t_3_2" fromLane="0" toLane="0"/>
  <connection from="t_3_2-t_2_2" to="t_2_2-t_1_2" fromLane="0" toLane="0"/>
  <connection from="t_2_1-t_2_2" to="t_2_2-t_1_2" fromLane="1" toLane="1"/>
  <connection from="t_2_3-t_2_2" to="t_2_2-t_3_2" fromLane="1" toLane="1"/>
  <connection from="t_1_2-t_2_2" to="t_2_2-t_2_3" fromLane="1" toLane="1"/>
  <connection from="t_3_2-t_2_2" to="t_2_2-t_2_1" fromLane="1" toLane="1"/>
  <connection from="t_2_1-t_2_2" to="t_2_2-t_3_2" fromLane="0" toLane="0"/>
  <connection from="t_2_3-t_2_2" to="t_2_2-t_1_2" fromLane="0" toLane="0"/>
  <connection from="t_1_2-t_2_2" to="t_2_2-t_2_1" fromLane="0" toLane="0"/>
  <connection from="t_3_2-t_2_2" to="t_2_2-t_2_3" fromLane="0" toLane="0"/>
  <connection from="t_2_2-t_2_3" to="t_2_3-t_2_4" fromLane="0" toLane="0"/>
  <connection from="t_2_4-t_2_3" to="t_2_3-t_2_2" fromLane="0" toLane="0"/>
  <connection from="t_1_3-t_2_3" to="t_2_3-t_3_3" fromLane="0" toLane="0"/>
  <connection from="t_3_3-t_2_3" to="t_2_3-t_1_3" fromLane="0" toLane="0"/>
  <connection from="t_2_2-t_2_3" to="t_2_3-t_1_3" fromLane="1" toLane="1"/>
  <connection from="t_2_4-t_2_3" to="t_2_3-t_3_3" fromLane="1" toLane="1"/>
  <connection from="t_1_3-t_2_3" to="t_2_3-t_2_4" fromLane="1" toLane="1"/>
  <connection from="t_3_3-t_2_3" to="t_2_3-t_2_2" fromLane="1" toLane="1"/>
  <connection from="t_2_2-t_2_3" to="t_2_3-t_3_3" fromLane="0" toLane="0"/>
  <connection from="t_2_4-t_2_3" to="t_2_3-t_1_3" fromLane="0" toLane="0"/>
  <connection from="t_1_3-t_2_3" to="t_2_3-t_2_2" fromLane="0" toLane="0"/>
  <connection from="t_3_3-t_2_3" to="t_2_3-t_2_4" fromLane="0" toLane="0"/>
  <connection from="t_2_3-t_2_4" to="t_2_4-t_2_5" fromLane="0" toLane="0"/>
  <connection from="t_2_5-t_2_4" to="t_2_4-t_2_3" fromLane="0" toLane="0"/>
  <connection from="t_1_4-t_2_4" to="t_2_4-t_3_4" fromLane="0" toLane="0"/>
  <connection from="t_3_4-t_2_4" to="t_2_4-t_1_4" fromLane="0" toLane="0"/>
  <connection from="t_2_3-t_2_4" to="t_2_4-t_1_4" fromLane="1" toLane="1"/>
  <connection from="t_2_5-t_2_4" to="t_2_4-t_3_4" fromLane="1" toLane="1"/>
  <connection from="t_1_4-t_2_4" to="t_2_4-t_2_5" fromLane="1" toLane="1"/>
  <connection from="t_3_4-t_2_4" to="t_2_4-t_2_3" fromLane="1" toLane="1"/>
  <connection from="t_2_3-t_2_4" to="t_2_4-t_3_4" fromLane="0" toLane="0"/>
  <connection from="t_2_5-t_2_4" to="t_2_4-t_1_4" fromLane="0" toLane="0"/>
  <connection from="t_1_4-t_2_4" to="t_2_4-t_2_3" fromLane="0" toLane="0"/>
  <connection from="t_3_4-t_2_4" to="t_2_4-t_2_5" fromLane="0" toLane="0"/>
  <connection from="t_2_4-t_2_5" to="t_2_5-p_2_6" fromLane="0" toLane="0"/>
  <connection from="p_2_6-t_2_5" to="t_2_5-t_2_4" fromLane="0" toLane="0"/>
  <connection from="t_1_5-t_2_5" to="t_2_5-t_3_5" fromLane="0" toLane="0"/>
  <connection from="t_3_5-t_2_5" to="t_2_5-t_1_5" fromLane="0" toLane="0"/>
  <connection from="t_2_4-t_2_5" to="t_2_5-t_1_5" fromLane="1" toLane="1"/>
  <connection from="p_2_6-t_2_5" to="t_2_5-t_3_5" fromLane="1" toLane="1"/>
  <connection from="t_1_5-t_2_5" to="t_2_5-p_2_6" fromLane="1" toLane="1"/>
  <connection from="t_3_5-t_2_5" to="t_2_5-t_2_4" fromLane="1" toLane="1"/>
  <connection from="t_2_4-t_2_5" to="t_2_5-t_3_5" fromLane="0" toLane="0"/>
  <connection from="p_2_6-t_2_5" to="t_2_5-t_1_5" fromLane="0" toLane="0"/>
  <connection from="t_1_5-t_2_5" to="t_2_5-t_2_4" fromLane="0" toLane="0"/>
  <connection from="t_3_5-t_2_5" to="t_2_5-p_2_6" fromLane="0" toLane="0"/>
  <connection from="p_3_0-t_3_1" to="t_3_1-t_3_2" fromLane="0" toLane="0"/>
  <connection from="t_3_2-t_3_1" to="t_3_1-p_3_0" fromLane="0" toLane="0"/>
  <connection from="t_2_1-t_3_1" to="t_3_1-t_4_1" fromLane="0" toLane="0"/>
  <connection from="t_4_1-t_3_1" to="t_3_1-t_2_1" fromLane="0" toLane="0"/>
  <connection from="p_3_0-t_3_1" to="t_3_1-t_2_1" fromLane="1" toLane="1"/>
  <connection from="t_3_2-t_3_1" to="t_3_1-t_4_1" fromLane="1" toLane="1"/>
  <connection from="t_2_1-t_3_1" to="t_3_1-t_3_2" fromLane="1" toLane="1"/>
  <connection from="t_4_1-t_3_1" to="t_3_1-p_3_0" fromLane="1" toLane="1"/>
  <connection from="p_3_0-t_3_1" to="t_3_1-t_4_1" fromLane="0" toLane="0"/>
  <connection from="t_3_2-t_3_1" to="t_3_1-t_2_1" fromLane="0" toLane="0"/>
  <connection from="t_2_1-t_3_1" to="t_3_1-p_3_0" fromLane="0" toLane="0"/>
  <connection from="t_4_1-t_3_1" to="t_3_1-t_3_2" fromLane="0" toLane="0"/>
  <connection from="t_3_1-t_3_2" to="t_3_2-t_3_3" fromLane="0" toLane="0"/>
  <connection from="t_3_3-t_3_2" to="t_3_2-t_3_1" fromLane="0" toLane="0"/>
  <connection from="t_2_2-t_3_2" to="t_3_2-t_4_2" fromLane="0" toLane="0"/>
  <connection from="t_4_2-t_3_2" to="t_3_2-t_2_2" fromLane="0" toLane="0"/>
  <connection from="t_3_1-t_3_2" to="t_3_2-t_2_2" fromLane="1" toLane="1"/>
  <connection from="t_3_3-t_3_2" to="t_3_2-t_4_2" fromLane="1" toLane="1"/>
  <connection from="t_2_2-t_3_2" to="t_3_2-t_3_3" fromLane="1" toLane="1"/>
  <connection from="t_4_2-t_3_2" to="t_3_2-t_3_1" fromLane="1" toLane="1"/>
  <connection from="t_3_1-t_3_2" to="t_3_2-t_4_2" fromLane="0" toLane="0"/>
  <connection from="t_3_3-t_3_2" to="t_3_2-t_2_2" fromLane="0" toLane="0"/>
  <connection from="t_2_2-t_3_2" to="t_3_2-t_3_1" fromLane="0" toLane="0"/>
  <connection from="t_4_2-t_3_2" to="t_3_2-t_3_3" fromLane="0" toLane="0"/>
  <connection from="t_3_2-t_3_3" to="t_3_3-t_3_4" fromLane="0" toLane="0"/>
  <connection from="t_3_4-t_3_3" to="t_3_3-t_3_2" fromLane="0" toLane="0"/>
  <connection from="t_2_3-t_3_3" to="t_3_3-t_4_3" fromLane="0" toLane="0"/>
  <connection from="t_4_3-t_3_3" to="t_3_3-t_2_3" fromLane="0" toLane="0"/>
  <connection from="t_3_2-t_3_3" to="t_3_3-t_2_3" fromLane="1" toLane="1"/>
  <connection from="t_3_4-t_3_3" to="t_3_3-t_4_3" fromLane="1" toLane="1"/>
  <connection from="t_2_3-t_3_3" to="t_3_3-t_3_4" fromLane="1" toLane="1"/>
  <connection from="t_4_3-t_3_3" to="t_3_3-t_3_2" fromLane="1" toLane="1"/>
  <connection from="t_3_2-t_3_3" to="t_3_3-t_4_3" fromLane="0" toLane="0"/>
  <connection from="t_3_4-t_3_3" to="t_3_3-t_2_3" fromLane="0" toLane="0"/>
  <connection from="t_2_3-t_3_3" to="t_3_3-t_3_2" fromLane="0" toLane="0"/>
  <connection from="t_4_3-t_3_3" to="t_3_3-t_3_4" fromLane="0" toLane="0"/>
  <connection from="t_3_3-t_3_4" to="t_3_4-t_3_5" fromLane="0" toLane="0"/>
  <connection from="t_3_5-t_3_4" to="t_3_4-t_3_3" fromLane="0" toLane="0"/>
  <connection from="t_2_4-t_3_4" to="t_3_4-t_4_4" fromLane="0" toLane="0"/>
  <connection from="t_4_4-t_3_4" to="t_3_4-t_2_4" fromLane="0" toLane="0"/>
  <connection from="t_3_3-t_3_4" to="t_3_4-t_2_4" fromLane="1" toLane="1"/>
  <connection from="t_3_5-t_3_4" to="t_3_4-t_4_4" fromLane="1" toLane="1"/>
  <connection from="t_2_4-t_3_4" to="t_3_4-t_3_5" fromLane="1" toLane="1"/>
  <connection from="t_4_4-t_3_4" to="t_3_4-t_3_3" fromLane="1" toLane="1"/>
  <connection from="t_3_3-t_3_4" to="t_3_4-t_4_4" fromLane="0" toLane="0"/>
  <connection from="t_3_5-t_3_4" to="t_3_4-t_2_4" fromLane="0" toLane="0"/>
  <connection from="t_2_4-t_3_4" to="t_3_4-t_3_3" fromLane="0" toLane="0"/>
  <connection from="t_4_4-t_3_4" to="t_3_4-t_3_5" fromLane="0" toLane="0"/>
  <connection from="t_3_4-t_3_5" to="t_3_5-p_3_6" fromLane="0" toLane="0"/>
  <connection from="p_3_6-t_3_5" to="t_3_5-t_3_4" fromLane="0" toLane="0"/>
  <connection from="t_2_5-t_3_5" to="t_3_5-t_4_5" fromLane="0" toLane="0"/>
  <connection from="t_4_5-t_3_5" to="t_3_5-t_2_5" fromLane="0" toLane="0"/>
  <connection from="t_3_4-t_3_5" to="t_3_5-t_2_5" fromLane="1" toLane="1"/>
  <connection from="p_3_6-t_3_5" to="t_3_5-t_4_5" fromLane="1" toLane="1"/>
  <connection from="t_2_5-t_3_5" to="t_3_5-p_3_6" fromLane="1" toLane="1"/>
  <connection from="t_4_5-t_3_5" to="t_3_5-t_3_4" fromLane="1" toLane="1"/>
  <connection from="t_3_4-t_3_5" to="t_3_5-t_4_5" fromLane="0" toLane="0"/>
  <connection from="p_3_6-t_3_5" to="t_3_5-t_2_5" fromLane="0" toLane="0"/>
  <connection from="t_2_5-t_3_5" to="t_3_5-t_3_4" fromLane="0" toLane="0"/>
  <connection from="t_4_5-t_3_5" to="t_3_5-p_3_6" fromLane="0" toLane="0"/>
  <connection from="p_4_0-t_4_1" to="t_4_1-t_4_2" fromLane="0" toLane="0"/>
  <connection from="t_4_2-t_4_1" to="t_4_1-p_4_0" fromLane="0" toLane="0"/>
  <connection from="t_3_1-t_4_1" to="t_4_1-t_5_1" fromLane="0" toLane="0"/>
  <connection from="t_5_1-t_4_1" to="t_4_1-t_3_1" fromLane="0" toLane="0"/>
  <connection from="p_4_0-t_4_1" to="t_4_1-t_3_1" fromLane="1" toLane="1"/>
  <connection from="t_4_2-t_4_1" to="t_4_1-t_5_1" fromLane="1" toLane="1"/>
  <connection from="t_3_1-t_4_1" to="t_4_1-t_4_2" fromLane="1" toLane="1"/>
  <connection from="t_5_1-t_4_1" to="t_4_1-p_4_0" fromLane="1" toLane="1"/>
  <connection from="p_4_0-t_4_1" to="t_4_1-t_5_1" fromLane="0" toLane="0"/>
  <connection from="t_4_2-t_4_1" to="t_4_1-t_3_1" fromLane="0" toLane="0"/>
  <connection from="t_3_1-t_4_1" to="t_4_1-p_4_0" fromLane="0" toLane="0"/>
  <connection from="t_5_1-t_4_1" to="t_4_1-t_4_2" fromLane="0" toLane="0"/>
  <connection from="t_4_1-t_4_2" to="t_4_2-t_4_3" fromLane="0" toLane="0"/>
  <connection from="t_4_3-t_4_2" to="t_4_2-t_4_1" fromLane="0" toLane="0"/>
  <connection from="t_3_2-t_4_2" to="t_4_2-t_5_2" fromLane="0" toLane="0"/>
  <connection from="t_5_2-t_4_2" to="t_4_2-t_3_2" fromLane="0" toLane="0"/>
  <connection from="t_4_1-t_4_2" to="t_4_2-t_3_2" fromLane="1" toLane="1"/>
  <connection from="t_4_3-t_4_2" to="t_4_2-t_5_2" fromLane="1" toLane="1"/>
  <connection from="t_3_2-t_4_2" to="t_4_2-t_4_3" fromLane="1" toLane="1"/>
  <connection from="t_5_2-t_4_2" to="t_4_2-t_4_1" fromLane="1" toLane="1"/>
  <connection from="t_4_1-t_4_2" to="t_4_2-t_5_2" fromLane="0" toLane="0"/>
  <connection from="t_4_3-t_4_2" to="t_4_2-t_3_2" fromLane="0" toLane="0"/>
  <connection from="t_3_2-t_4_2" to="t_4_2-t_4_1" fromLane="0" toLane="0"/>
  <connection from="t_5_2-t_4_2" to="t_4_2-t_4_3" fromLane="0" toLane="0"/>
  <connection from="t_4_2-t_4_3" to="t_4_3-t_4_4" fromLane="0" toLane="0"/>
  <connection from="t_4_4-t_4_3" to="t_4_3-t_4_2" fromLane="0" toLane="0"/>
  <connection from="t_3_3-t_4_3" to="t_4_3-t_5_3" fromLane="0" toLane="0"/>
  <connection from="t_5_3-t_4_3" to="t_4_3-t_3_3" fromLane="0" toLane="0"/>
  <connection from="t_4_2-t_4_3" to="t_4_3-t_3_3" fromLane="1" toLane="1"/>
  <connection from="t_4_4-t_4_3" to="t_4_3-t_5_3" fromLane="1" toLane="1"/>
  <connection from="t_3_3-t_4_3" to="t_4_3-t_4_4" fromLane="1" toLane="1"/>
  <connection from="t_5_3-t_4_3" to="t_4_3-t_4_2" fromLane="1" toLane="1"/>
  <connection from="t_4_2-t_4_3" to="t_4_3-t_5_3" fromLane="0" toLane="0"/>
  <connection from="t_4_4-t_4_3" to="t_4_3-t_3_3" fromLane="0" toLane="0"/>
  <connection from="t_3_3-t_4_3" to="t_4_3-t_4_2" fromLane="0" toLane="0"/>
  <connection from="t_5_3-t_4_3" to="t_4_3-t_4_4" fromLane="0" toLane="0"/>
  <connection from="t_4_3-t_4_4" to="t_4_4-t_4_5" fromLane="0" toLane="0"/>
  <connection from="t_4_5-t_4_4" to="t_4_4-t_4_3" fromLane="0" toLane="0"/>
  <connection from="t_3_4-t_4_4" to="t_4_4-t_5_4" fromLane="0" toLane="0"/>
  <connection from="t_5_4-t_4_4" to="t_4_4-t_3_4" fromLane="0" toLane="0"/>
  <connection from="t_4_3-t_4_4" to="t_4_4-t_3_4" fromLane="1" toLane="1"/>
  <connection from="t_4_5-t_4_4" to="t_4_4-t_5_4" fromLane="1" toLane="1"/>
  <connection from="t_3_4-t_4_4" to="t_4_4-t_4_5" fromLane="1" toLane="1"/>
  <connection from="t_5_4-t_4_4" to="t_4_4-t_4_3" fromLane="1" toLane="1"/>
  <connection from="t_4_3-t_4_4" to="t_4_4-t_5_4" fromLane="0" toLane="0"/>
  <connection from="t_4_5-t_4_4" to="t_4_4-t_3_4" fromLane="0" toLane="0"/>
  <connection from="t_3_4-t_4_4" to="t_4_4-t_4_3" fromLane="0" toLane="0"/>
  <connection from="t_5_4-t_4_4" to="t_4_4-t_4_5" fromLane="0" toLane="0"/>
  <connection from="t_4_4-t_4_5" to="t_4_5-p_4_6" fromLane="0" toLane="0"/>
  <connection from="p_4_6-t_4_5" to="t_4_5-t_4_4" fromLane="0" toLane="0"/>
  <connection from="t_3_5-t_4_5" to="t_4_5-t_5_5" fromLane="0" toLane="0"/>
  <connection from="t_5_5-t_4_5" to="t_4_5-t_3_5" fromLane="0" toLane="0"/>
  <connection from="t_4_4-t_4_5" to="t_4_5-t_3_5" fromLane="1" toLane="1"/>
  <connection from="p_4_6-t_4_5" to="t_4_5-t_5_5" fromLane="1" toLane="1"/>
  <connection from="t_3_5-t_4_5" to="t_4_5-p_4_6" fromLane="1" toLane="1"/>
  <connection from="t_5_5-t_4_5" to="t_4_5-t_4_4" fromLane="1" toLane="1"/>
  <connection from="t_4_4-t_4_5" to="t_4_5-t_5_5" fromLane="0" toLane="0"/>
  <connection from="p_4_6-t_4_5" to="t_4_5-t_3_5" fromLane="0" toLane="0"/>
  <connection from="t_3_5-t_4_5" to="t_4_5-t_4_4" fromLane="0" toLane="0"/>
  <connection from="t_5_5-t_4_5" to="t_4_5-p_4_6" fromLane="0" toLane="0"/>
  <connection from="p_5_0-t_5_1" to="t_5_1-t_5_2" fromLane="0" toLane="0"/>
  <connection from="t_5_2-t_5_1" to="t_5_1-p_5_0" fromLane="0" toLane="0"/>
  <connection from="t_4_1-t_5_1" to="t_5_1-p_6_1" fromLane="0" toLane="0"/>
  <connection from="p_6_1-t_5_1" to="t_5_1-t_4_1" fromLane="0" toLane="0"/>
  <connection from="p_5_0-t_5_1" to="t_5_1-t_4_1" fromLane="1" toLane="1"/>
  <connection from="t_5_2-t_5_1" to="t_5_1-p_6_1" fromLane="1" toLane="1"/>
  <connection from="t_4_1-t_5_1" to="t_5_1-t_5_2" fromLane="1" toLane="1"/>
  <connection from="p_6_1-t_5_1" to="t_5_1-p_5_0" fromLane="1" toLane="1"/>
  <connection from="p_5_0-t_5_1" to="t_5_1-p_6_1" fromLane="0" toLane="0"/>
  <connection from="t_5_2-t_5_1" to="t_5_1-t_4_1" fromLane="0" toLane="0"/>
  <connection from="t_4_1-t_5_1" to="t_5_1-p_5_0" fromLane="0" toLane="0"/>
  <connection from="p_6_1-t_5_1" to="t_5_1-t_5_2" fromLane="0" toLane="0"/>
  <connection from="t_5_1-t_5_2" to="t_5_2-t_5_3" fromLane="0" toLane="0"/>
  <connection from="t_5_3-t_5_2" to="t_5_2-t_5_1" fromLane="0" toLane="0"/>
  <connection from="t_4_2-t_5_2" to="t_5_2-p_6_2" fromLane="0" toLane="0"/>
  <connection from="p_6_2-t_5_2" to="t_5_2-t_4_2" fromLane="0" toLane="0"/>
  <connection from="t_5_1-t_5_2" to="t_5_2-t_4_2" fromLane="1" toLane="1"/>
  <connection from="t_5_3-t_5_2" to="t_5_2-p_6_2" fromLane="1" toLane="1"/>
  <connection from="t_4_2-t_5_2" to="t_5_2-t_5_3" fromLane="1" toLane="1"/>
  <connection from="p_6_2-t_5_2" to="t_5_2-t_5_1" fromLane="1" toLane="1"/>
  <connection from="t_5_1-t_5_2" to="t_5_2-p_6_2" fromLane="0" toLane="0"/>
  <connection from="t_5_3-t_5_2" to="t_5_2-t_4_2" fromLane="0" toLane="0"/>
  <connection from="t_4_2-t_5_2" to="t_5_2-t_5_1" fromLane="0" toLane="0"/>
  <connection from="p_6_2-t_5_2" to="t_5_2-t_5_3" fromLane="0" toLane="0"/>
  <connection from="t_5_2-t_5_3" to="t_5_3-t_5_4" fromLane="0" toLane="0"/>
  <connection from="t_5_4-t_5_3" to="t_5_3-t_5_2" fromLane="0" toLane="0"/>
  <connection from="t_4_3-t_5_3" to="t_5_3-p_6_3" fromLane="0" toLane="0"/>
  <connection from="p_6_3-t_5_3" to="t_5_3-t_4_3" fromLane="0" toLane="0"/>
  <connection from="t_5_2-t_5_3" to="t_5_3-t_4_3" fromLane="1" toLane="1"/>
  <connection from="t_5_4-t_5_3" to="t_5_3-p_6_3" fromLane="1" toLane="1"/>
  <connection from="t_4_3-t_5_3" to="t_5_3-t_5_4" fromLane="1" toLane="1"/>
  <connection from="p_6_3-t_5_3" to="t_5_3-t_5_2" fromLane="1" toLane="1"/>
  <connection from="t_5_2-t_5_3" to="t_5_3-p_6_3" fromLane="0" toLane="0"/>
  <connection from="t_5_4-t_5_3" to="t_5_3-t_4_3" fromLane="0" toLane="0"/>
  <connection from="t_4_3-t_5_3" to="t_5_3-t_5_2" fromLane="0" toLane="0"/>
  <connection from="p_6_3-t_5_3" to="t_5_3-t_5_4" fromLane="0" toLane="0"/>
  <connection from="t_5_3-t_5_4" to="t_5_4-t_5_5" fromLane="0" toLane="0"/>
  <connection from="t_5_5-t_5_4" to="t_5_4-t_5_3" fromLane="0" toLane="0"/>
  <connection from="t_4_4-t_5_4" to="t_5_4-p_6_4" fromLane="0" toLane="0"/>
  <connection from="p_6_4-t_5_4" to="t_5_4-t_4_4" fromLane="0" toLane="0"/>
  <connection from="t_5_3-t_5_4" to="t_5_4-t_4_4" fromLane="1" toLane="1"/>
  <connection from="t_5_5-t_5_4" to="t_5_4-p_6_4" fromLane="1" toLane="1"/>
  <connection from="t_4_4-t_5_4" to="t_5_4-t_5_5" fromLane="1" toLane="1"/>
  <connection from="p_6_4-t_5_4" to="t_5_4-t_5_3" fromLane="1" toLane="1"/>
  <connection from="t_5_3-t_5_4" to="t_5_4-p_6_4" fromLane="0" toLane="0"/>
  <connection from="t_5_5-t_5_4" to="t_5_4-t_4_4" fromLane="0" toLane="0"/>
  <connection from="t_4_4-t_5_4" to="t_5_4-t_5_3" fromLane="0" toLane="0"/>
  <connection from="p_6_4-t_5_4" to="t_5_4-t_5_5" fromLane="0" toLane="0"/>
  <connection from="t_5_4-t_5_5" to="t_5_5-p_5_6" fromLane="0" toLane="0"/>
  <connection from="p_5_6-t_5_5" to="t_5_5-t_5_4" fromLane="0" toLane="0"/>
  <connection from="t_4_5-t_5_5" to="t_5_5-p_6_5" fromLane="0" toLane="0"/>
  <connection from="p_6_5-t_5_5" to="t_5_5-t_4_5" fromLane="0" toLane="0"/>
  <connection from="t_5_4-t_5_5" to="t_5_5-t_4_5" fromLane="1" toLane="1"/>
  <connection from="p_5_6-t_5_5" to="t_5_5-p_6_5" fromLane="1" toLane="1"/>
  <connection from="t_4_5-t_5_5" to="t_5_5-p_5_6" fromLane="1" toLane="1"/>
  <connection from="p_6_5-t_5_5" to="t_5_5-t_5_4" fromLane="1" toLane="1"/>
  <connection from="t_5_4-t_5_5" to="t_5_5-p_6_5" fromLane="0" toLane="0"/>
  <connection from="p_5_6-t_5_5" to="t_5_5-t_4_5" fromLane="0" toLane="0"/>
  <connection from="t_4_5-t_5_5" to="t_5_5-t_5_4" fromLane="0" toLane="0"/>
  <connection from="p_6_5-t_5_5" to="t_5_5-p_5_6" fromLane="0" toLane="0"/>
</connections>
