<additional>
  <tlLogic id="t_1_1" programID="0" offset="0" type="static">
    <phase duration="5" state="GGrrrrGGrrrr"/>
    <phase duration="2" state="yyrrrryyrrrr"/>
    <phase duration="5" state="rrGrrrrrGrrr"/>
    <phase duration="2" state="rryrrrrryrrr"/>
    <phase duration="5" state="rrrGGrrrrGGr"/>
    <phase duration="2" state="rrryyrrrryyr"/>
    <phase duration="5" state="rrrrrGrrrrrG"/>
    <phase duration="2" state="rrrrryrrrrry"/>
  </tlLogic>
  <tlLogic id="t_1_2" programID="0" offset="0" type="static">
    <phase duration="5" state="GGrrrrGGrrrr"/>
    <phase duration="2" state="yyrrrryyrrrr"/>
    <phase duration="5" state="rrGrrrrrGrrr"/>
    <phase duration="2" state="rryrrrrryrrr"/>
    <phase duration="5" state="rrrGGrrrrGGr"/>
    <phase duration="2" state="rrryyrrrryyr"/>
    <phase duration="5" state="rrrrrGrrrrrG"/>
    <phase duration="2" state="rrrrryrrrrry"/>
  </tlLogic>
  <tlLogic id="t_1_3" programID="0" offset="0" type="static">
    <phase duration="5" state="GGrrrrGGrrrr"/>
    <phase duration="2" state="yyrrrryyrrrr"/>
    <phase duration="5" state="rrGrrrrrGrrr"/>
    <phase duration="2" state="rryrrrrryrrr"/>
    <phase duration="5" state="rrrGGrrrrGGr"/>
    <phase duration="2" state="rrryyrrrryyr"/>
    <phase duration="5" state="rrrrrGrrrrrG"/>
    <phase duration="2" state="rrrrryrrrrry"/>
  </tlLogic>
  <tlLogic id="t_1_4" programID="0" offset="0" type="static">
    <phase duration="5" state="GGrrrrGGrrrr"/>
    <phase duration="2" state="yyrrrryyrrrr"/>
    <phase duration="5" state="rrGrrrrrGrrr"/>
    <phase duration="2" state="rryrrrrryrrr"/>
    <phase duration="5" state="rrrGGrrrrGGr"/>
    <phase duration="2" state="rrryyrrrryyr"/>
    <phase duration="5" state="rrrrrGrrrrrG"/>
    <phase duration="2" state="rrrrryrrrrry"/>
  </tlLogic>
  <tlLogic id="t_1_5" programID="0" offset="0" type="static">
    <phase duration="5" state="GGrrrrGGrrrr"/>
    <phase duration="2" state="yyrrrryyrrrr"/>
    <phase duration="5" state="rrGrrrrrGrrr"/>
    <phase duration="2" state="rryrrrrryrrr"/>
    <phase duration="5" state="rrrGGrrrrGGr"/>
    <phase duration="2" state="rrryyrrrryyr"/>
    <phase duration="5" state="rrrrrGrrrrrG"/>
    <phase duration="2" state="rrrrryrrrrry"/>
  </tlLogic>
  <tlLogic id="t_2_1" programID="0" offset="0" type="static">
    <phase duration="5" state="GGrrrrGGrrrr"/>
    <phase duration="2" state="yyrrrryyrrrr"/>
    <phase duration="5" state="rrGrrrrrGrrr"/>
    <phase duration="2" state="rryrrrrryrrr"/>
    <phase duration="5" state="rrrGGrrrrGGr"/>
    <phase duration="2" state="rrryyrrrryyr"/>
    <phase duration="5" state="rrrrrGrrrrrG"/>
    <phase duration="2" state="rrrrryrrrrry"/>
  </tlLogic>
  <tlLogic id="t_2_2" programID="0" offset="0" type="static">
    <phase duration="5" state="GGrrrrGGrrrr"/>
    <phase duration="2" state="yyrrrryyrrrr"/>
    <phase duration="5" state="rrGrrrrrGrrr"/>
    <phase duration="2" state="rryrrrrryrrr"/>
    <phase duration="5" state="rrrGGrrrrGGr"/>
    <phase duration="2" state="rrryyrrrryyr"/>
    <phase duration="5" state="rrrrrGrrrrrG"/>
    <phase duration="2" state="rrrrryrrrrry"/>
  </tlLogic>
  <tlLogic id="t_2_3" programID="0" offset="0" type="static">
    <phase duration="5" state="GGrrrrGGrrrr"/>
    <phase duration="2" state="yyrrrryyrrrr"/>
    <phase duration="5" state="rrGrrrrrGrrr"/>
    <phase duration="2" state="rryrrrrryrrr"/>
    <phase duration="5" state="rrrGGrrrrGGr"/>
    <phase duration="2" state="rrryyrrrryyr"/>
    <phase duration="5" state="rrrrrGrrrrrG"/>
    <phase duration="2" state="rrrrryrrrrry"/>
  </tlLogic>
  <tlLogic id="t_2_4" programID="0" offset="0" type="static">
    <phase duration="5" state="GGrrrrGGrrrr"/>
    <phase duration="2" state="yyrrrryyrrrr"/>
    <phase duration="5" state="rrGrrrrrGrrr"/>
    <phase duration="2" state="rryrrrrryrrr"/>
    <phase duration="5" state="rrrGGrrrrGGr"/>
    <phase duration="2" state="rrryyrrrryyr"/>
    <phase duration="5" state="rrrrrGrrrrrG"/>
    <phase duration="2" state="rrrrryrrrrry"/>
  </tlLogic>
  <tlLogic id="t_2_5" programID="0" offset="0" type="static">
    <phase duration="5" state="GGrrrrGGrrrr"/>
    <phase duration="2" state="yyrrrryyrrrr"/>
    <phase duration="5" state="rrGrrrrrGrrr"/>
    <phase duration="2" state="rryrrrrryrrr"/>
    <phase duration="5" state="rrrGGrrrrGGr"/>
    <phase duration="2" state="rrryyrrrryyr"/>
    <phase duration="5" state="rrrrrGrrrrrG"/>
    <phase duration="2" state="rrrrryrrrrry"/>
  </tlLogic>
  <tlLogic id="t_3_1" programID="0" offset="0" type="static">
    <phase duration="5" state="GGrrrrGGrrrr"/>
    <phase duration="2" state="yyrrrryyrrrr"/>
    <phase duration="5" state="rrGrrrrrGrrr"/>
    <phase duration="2" state="rryrrrrryrrr"/>
    <phase duration="5" state="rrrGGrrrrGGr"/>
    <phase duration="2" state="rrryyrrrryyr"/>
    <phase duration="5" state="rrrrrGrrrrrG"/>
    <phase duration="2" state="rrrrryrrrrry"/>
  </tlLogic>
  <tlLogic id="t_3_2" programID="0" offset="0" type="static">
    <phase duration="5" state="GGrrrrGGrrrr"/>
    <phase duration="2" state="yyrrrryyrrrr"/>
    <phase duration="5" state="rrGrrrrrGrrr"/>
    <phase duration="2" state="rryrrrrryrrr"/>
    <phase duration="5" state="rrrGGrrrrGGr"/>
    <phase duration="2" state="rrryyrrrryyr"/>
    <phase duration="5" state="rrrrrGrrrrrG"/>
    <phase duration="2" state="rrrrryrrrrry"/>
  </tlLogic>
  <tlLogic id="t_3_3" programID="0" offset="0" type="static">
    <phase duration="5" state="GGrrrrGGrrrr"/>
    <phase duration="2" state="yyrrrryyrrrr"/>
    <phase duration="5" state="rrGrrrrrGrrr"/>
    <phase duration="2" state="rryrrrrryrrr"/>
    <phase duration="5" state="rrrGGrrrrGGr"/>
    <phase duration="2" state="rrryyrrrryyr"/>
    <phase duration="5" state="rrrrrGrrrrrG"/>
    <phase duration="2" state="rrrrryrrrrry"/>
  </tlLogic>
  <tlLogic id="t_3_4" programID="0" offset="0" type="static">
    <phase duration="5" state="GGrrrrGGrrrr"/>
    <phase duration="2" state="yyrrrryyrrrr"/>
    <phase duration="5" state="rrGrrrrrGrrr"/>
    <phase duration="2" state="rryrrrrryrrr"/>
    <phase duration="5" state="rrrGGrrrrGGr"/>
    <phase duration="2" state="rrryyrrrryyr"/>
    <phase duration="5" state="rrrrrGrrrrrG"/>
    <phase duration="2" state="rrrrryrrrrry"/>
  </tlLogic>
  <tlLogic id="t_3_5" programID="0" offset="0" type="static">
    <phase duration="5" state="GGrrrrGGrrrr"/>
    <phase duration="2" state="yyrrrryyrrrr"/>
    <phase duration="5" state="rrGrrrrrGrrr"/>
    <phase duration="2" state="rryrrrrryrrr"/>
    <phase duration="5" state="rrrGGrrrrGGr"/>
    <phase duration="2" state="rrryyrrrryyr"/>
    <phase duration="5" state="rrrrrGrrrrrG"/>
    <phase duration="2" state="rrrrryrrrrry"/>
  </tlLogic>
  <tlLogic id="t_4_1" programID="0" offset="0" type="static">
    <phase duration="5" state="GGrrrrGGrrrr"/>
    <phase duration="2" state="yyrrrryyrrrr"/>
    <phase duration="5" state="rrGrrrrrGrrr"/>
    <phase duration="2" state="rryrrrrryrrr"/>
    <phase duration="5" state="rrrGGrrrrGGr"/>
    <phase duration="2" state="rrryyrrrryyr"/>
    <phase duration="5" state="rrrrrGrrrrrG"/>
    <phase duration="2" state="rrrrryrrrrry"/>
  </tlLogic>
  <tlLogic id="t_4_2" programID="0" offset="0" type="static">
    <phase duration="5" state="GGrrrrGGrrrr"/>
    <phase duration="2" state="yyrrrryyrrrr"/>
    <phase duration="5" state="rrGrrrrrGrrr"/>
    <phase duration="2" state="rryrrrrryrrr"/>
    <phase duration="5" state="rrrGGrrrrGGr"/>
    <phase duration="2" state="rrryyrrrryyr"/>
    <phase duration="5" state="rrrrrGrrrrrG"/>
    <phase duration="2" state="rrrrryrrrrry"/>
  </tlLogic>
  <tlLogic id="t_4_3" programID="0" offset="0" type="static">
    <phase duration="5" state="GGrrrrGGrrrr"/>
    <phase duration="2" state="yyrrrryyrrrr"/>
    <phase duration="5" state="rrGrrrrrGrrr"/>
    <phase duration="2" state="rryrrrrryrrr"/>
    <phase duration="5" state="rrrGGrrrrGGr"/>
    <phase duration="2" state="rrryyrrrryyr"/>
    <phase duration="5" state="rrrrrGrrrrrG"/>
    <phase duration="2" state="rrrrryrrrrry"/>
  </tlLogic>
  <tlLogic id="t_4_4" programID="0" offset="0" type="static">
    <phase duration="5" state="GGrrrrGGrrrr"/>
    <phase duration="2" state="yyrrrryyrrrr"/>
    <phase duration="5" state="rrGrrrrrGrrr"/>
    <phase duration="2" state="rryrrrrryrrr"/>
    <phase duration="5" state="rrrGGrrrrGGr"/>
    <phase duration="2" state="rrryyrrrryyr"/>
    <phase duration="5" state="rrrrrGrrrrrG"/>
    <phase duration="2" state="rrrrryrrrrry"/>
  </tlLogic>
  <tlLogic id="t_4_5" programID="0" offset="0" type="static">
    <phase duration="5" state="GGrrrrGGrrrr"/>
    <phase duration="2" state="yyrrrryyrrrr"/>
    <phase duration="5" state="rrGrrrrrGrrr"/>
    <phase duration="2" state="rryrrrrryrrr"/>
    <phase duration="5" state="rrrGGrrrrGGr"/>
    <phase duration="2" state="rrryyrrrryyr"/>
    <phase duration="5" state="rrrrrGrrrrrG"/>
    <phase duration="2" state="rrrrryrrrrry"/>
  </tlLogic>
  <tlLogic id="t_5_1" programID="0" offset="0" type="static">
    <phase duration="5" state="GGrrrrGGrrrr"/>
    <phase duration="2" state="yyrrrryyrrrr"/>
    <phase duration="5" state="rrGrrrrrGrrr"/>
    <phase duration="2" state="rryrrrrryrrr"/>
    <phase duration="5" state="rrrGGrrrrGGr"/>
    <phase duration="2" state="rrryyrrrryyr"/>
    <phase duration="5" state="rrrrrGrrrrrG"/>
    <phase duration="2" state="rrrrryrrrrry"/>
  </tlLogic>
  <tlLogic id="t_5_2" programID="0" offset="0" type="static">
    <phase duration="5" state="GGrrrrGGrrrr"/>
    <phase duration="2" state="yyrrrryyrrrr"/>
    <phase duration="5" state="rrGrrrrrGrrr"/>
    <phase duration="2" state="rryrrrrryrrr"/>
    <phase duration="5" state="rrrGGrrrrGGr"/>
    <phase duration="2" state="rrryyrrrryyr"/>
    <phase duration="5" state="rrrrrGrrrrrG"/>
    <phase duration="2" state="rrrrryrrrrry"/>
  </tlLogic>
  <tlLogic id="t_5_3" programID="0" offset="0" type="static">
    <phase duration="5" state="GGrrrrGGrrrr"/>
    <phase duration="2" state="yyrrrryyrrrr"/>
    <phase duration="5" state="rrGrrrrrGrrr"/>
    <phase duration="2" state="rryrrrrryrrr"/>
    <phase duration="5" state="rrrGGrrrrGGr"/>
    <phase duration="2" state="rrryyrrrryyr"/>
    <phase duration="5" state="rrrrrGrrrrrG"/>
    <phase duration="2" state="rrrrryrrrrry"/>
  </tlLogic>
  <tlLogic id="t_5_4" programID="0" offset="0" type="static">
    <phase duration="5" state="GGrrrrGGrrrr"/>
    <phase duration="2" state="yyrrrryyrrrr"/>
    <phase duration="5" state="rrGrrrrrGrrr"/>
    <phase duration="2" state="rryrrrrryrrr"/>
    <phase duration="5" state="rrrGGrrrrGGr"/>
    <phase duration="2" state="rrryyrrrryyr"/>
    <phase duration="5" state="rrrrrGrrrrrG"/>
    <phase duration="2" state="rrrrryrrrrry"/>
  </tlLogic>
  <tlLogic id="t_5_5" programID="0" offset="0" type="static">
    <phase duration="5" state="GGrrrrGGrrrr"/>
    <phase duration="2" state="yyrrrryyrrrr"/>
    <phase duration="5" state="rrGrrrrrGrrr"/>
    <phase duration="2" state="rryrrrrryrrr"/>
    <phase duration="5" state="rrrGGrrrrGGr"/>
    <phase duration="2" state="rrryyrrrryyr"/>
    <phase duration="5" state="rrrrrGrrrrrG"/>
    <phase duration="2" state="rrrrryrrrrry"/>
  </tlLogic>
</additional>
