<additional>
  <laneAreaDetector file="NUL" freq="1" id="t_1_1-t_1_2_0" lane="t_1_1-t_1_2_0" pos="-60" endPos="-1"/>
  <laneAreaDetector file="NUL" freq="1" id="t_1_1-t_1_2_1" lane="t_1_1-t_1_2_1" pos="-60" endPos="-1"/>
  <laneAreaDetector file="NUL" freq="1" id="t_1_1-t_2_1_0" lane="t_1_1-t_2_1_0" pos="-60" endPos="-1"/>
  <laneAreaDetector file="NUL" freq="1" id="t_1_1-t_2_1_1" lane="t_1_1-t_2_1_1" pos="-60" endPos="-1"/>
  <laneAreaDetector file="NUL" freq="1" id="t_1_2-t_1_3_0" lane="t_1_2-t_1_3_0" pos="-60" endPos="-1"/>
  <laneAreaDetector file="NUL" freq="1" id="t_1_2-t_1_3_1" lane="t_1_2-t_1_3_1" pos="-60" endPos="-1"/>
  <laneAreaDetector file="NUL" freq="1" id="t_1_2-t_1_1_0" lane="t_1_2-t_1_1_0" pos="-60" endPos="-1"/>
  <laneAreaDetector file="NUL" freq="1" id="t_1_2-t_1_1_1" lane="t_1_2-t_1_1_1" pos="-60" endPos="-1"/>
  <laneAreaDetector file="NUL" freq="1" id="t_1_2-t_2_2_0" lane="t_1_2-t_2_2_0" pos="-60" endPos="-1"/>
  <laneAreaDetector file="NUL" freq="1" id="t_1_2-t_2_2_1" lane="t_1_2-t_2_2_1" pos="-60" endPos="-1"/>
  <laneAreaDetector file="NUL" freq="1" id="t_1_3-t_1_4_0" lane="t_1_3-t_1_4_0" pos="-60" endPos="-1"/>
  <laneAreaDetector file="NUL" freq="1" id="t_1_3-t_1_4_1" lane="t_1_3-t_1_4_1" pos="-60" endPos="-1"/>
  <laneAreaDetector file="NUL" freq="1" id="t_1_3-t_1_2_0" lane="t_1_3-t_1_2_0" pos="-60" endPos="-1"/>
  <laneAreaDetector file="NUL" freq="1" id="t_1_3-t_1_2_1" lane="t_1_3-t_1_2_1" pos="-60" endPos="-1"/>
  <laneAreaDetector file="NUL" freq="1" id="t_1_3-t_2_3_0" lane="t_1_3-t_2_3_0" pos="-60" endPos="-1"/>
  <laneAreaDetector file="NUL" freq="1" id="t_1_3-t_2_3_1" lane="t_1_3-t_2_3_1" pos="-60" endPos="-1"/>
  <laneAreaDetector file="NUL" freq="1" id="t_1_4-t_1_5_0" lane="t_1_4-t_1_5_0" pos="-60" endPos="-1"/>
  <laneAreaDetector file="NUL" freq="1" id="t_1_4-t_1_5_1" lane="t_1_4-t_1_5_1" pos="-60" endPos="-1"/>
  <laneAreaDetector file="NUL" freq="1" id="t_1_4-t_1_3_0" lane="t_1_4-t_1_3_0" pos="-60" endPos="-1"/>
  <laneAreaDetector file="NUL" freq="1" id="t_1_4-t_1_3_1" lane="t_1_4-t_1_3_1" pos="-60" endPos="-1"/>
  <laneAreaDetector file="NUL" freq="1" id="t_1_4-t_2_4_0" lane="t_1_4-t_2_4_0" pos="-60" endPos="-1"/>
  <laneAreaDetector file="NUL" freq="1" id="t_1_4-t_2_4_1" lane="t_1_4-t_2_4_1" pos="-60" endPos="-1"/>
  <laneAreaDetector file="NUL" freq="1" id="t_1_5-t_1_4_0" lane="t_1_5-t_1_4_0" pos="-60" endPos="-1"/>
  <laneAreaDetector file="NUL" freq="1" id="t_1_5-t_1_4_1" lane="t_1_5-t_1_4_1" pos="-60" endPos="-1"/>
  <laneAreaDetector file="NUL" freq="1" id="t_1_5-t_2_5_0" lane="t_1_5-t_2_5_0" pos="-60" endPos="-1"/>
  <laneAreaDetector file="NUL" freq="1" id="t_1_5-t_2_5_1" lane="t_1_5-t_2_5_1" pos="-60" endPos="-1"/>
  <laneAreaDetector file="NUL" freq="1" id="t_2_1-t_2_2_0" lane="t_2_1-t_2_2_0" pos="-60" endPos="-1"/>
  <laneAreaDetector file="NUL" freq="1" id="t_2_1-t_2_2_1" lane="t_2_1-t_2_2_1" pos="-60" endPos="-1"/>
  <laneAreaDetector file="NUL" freq="1" id="t_2_1-t_3_1_0" lane="t_2_1-t_3_1_0" pos="-60" endPos="-1"/>
  <laneAreaDetector file="NUL" freq="1" id="t_2_1-t_3_1_1" lane="t_2_1-t_3_1_1" pos="-60" endPos="-1"/>
  <laneAreaDetector file="NUL" freq="1" id="t_2_1-t_1_1_0" lane="t_2_1-t_1_1_0" pos="-60" endPos="-1"/>
  <laneAreaDetector file="NUL" freq="1" id="t_2_1-t_1_1_1" lane="t_2_1-t_1_1_1" pos="-60" endPos="-1"/>
  <laneAreaDetector file="NUL" freq="1" id="t_2_2-t_2_3_0" lane="t_2_2-t_2_3_0" pos="-60" endPos="-1"/>
  <laneAreaDetector file="NUL" freq="1" id="t_2_2-t_2_3_1" lane="t_2_2-t_2_3_1" pos="-60" endPos="-1"/>
  <laneAreaDetector file="NUL" freq="1" id="t_2_2-t_2_1_0" lane="t_2_2-t_2_1_0" pos="-60" endPos="-1"/>
  <laneAreaDetector file="NUL" freq="1" id="t_2_2-t_2_1_1" lane="t_2_2-t_2_1_1" pos="-60" endPos="-1"/>
  <laneAreaDetector file="NUL" freq="1" id="t_2_2-t_3_2_0" lane="t_2_2-t_3_2_0" pos="-60" endPos="-1"/>
  <laneAreaDetector file="NUL" freq="1" id="t_2_2-t_3_2_1" lane="t_2_2-t_3_2_1" pos="-60" endPos="-1"/>
  <laneAreaDetector file="NUL" freq="1" id="t_2_2-t_1_2_0" lane="t_2_2-t_1_2_0" pos="-60" endPos="-1"/>
  <laneAreaDetector file="NUL" freq="1" id="t_2_2-t_1_2_1" lane="t_2_2-t_1_2_1" pos="-60" endPos="-1"/>
  <laneAreaDetector file="NUL" freq="1" id="t_2_3-t_2_4_0" lane="t_2_3-t_2_4_0" pos="-60" endPos="-1"/>
  <laneAreaDetector file="NUL" freq="1" id="t_2_3-t_2_4_1" lane="t_2_3-t_2_4_1" pos="-60" endPos="-1"/>
  <laneAreaDetector file="NUL" freq="1" id="t_2_3-t_2_2_0" lane="t_2_3-t_2_2_0" pos="-60" endPos="-1"/>
  <laneAreaDetector file="NUL" freq="1" id="t_2_3-t_2_2_1" lane="t_2_3-t_2_2_1" pos="-60" endPos="-1"/>
  <laneAreaDetector file="NUL" freq="1" id="t_2_3-t_3_3_0" lane="t_2_3-t_3_3_0" pos="-60" endPos="-1"/>
  <laneAreaDetector file="NUL" freq="1" id="t_2_3-t_3_3_1" lane="t_2_3-t_3_3_1" pos="-60" endPos="-1"/>
  <laneAreaDetector file="NUL" freq="1" id="t_2_3-t_1_3_0" lane="t_2_3-t_1_3_0" pos="-60" endPos="-1"/>
  <laneAreaDetector file="NUL" freq="1" id="t_2_3-t_1_3_1" lane="t_2_3-t_1_3_1" pos="-60" endPos="-1"/>
  <laneAreaDetector file="NUL" freq="1" id="t_2_4-t_2_5_0" lane="t_2_4-t_2_5_0" pos="-60" endPos="-1"/>
  <laneAreaDetector file="NUL" freq="1" id="t_2_4-t_2_5_1" lane="t_2_4-t_2_5_1" pos="-60" endPos="-1"/>
  <laneAreaDetector file="NUL" freq="1" id="t_2_4-t_2_3_0" lane="t_2_4-t_2_3_0" pos="-60" endPos="-1"/>
  <laneAreaDetector file="NUL" freq="1" id="t_2_4-t_2_3_1" lane="t_2_4-t_2_3_1" pos="-60" endPos="-1"/>
  <laneAreaDetector file="NUL" freq="1" id="t_2_4-t_3_4_0" lane="t_2_4-t_3_4_0" pos="-60" endPos="-1"/>
  <laneAreaDetector file="NUL" freq="1" id="t_2_4-t_3_4_1" lane="t_2_4-t_3_4_1" pos="-60" endPos="-1"/>
  <laneAreaDetector file="NUL" freq="1" id="t_2_4-t_1_4_0" lane="t_2_4-t_1_4_0" pos="-60" endPos="-1"/>
  <laneAreaDetector file="NUL" freq="1" id="t_2_4-t_1_4_1" lane="t_2_4-t_1_4_1" pos="-60" endPos="-1"/>
  <laneAreaDetector file="NUL" freq="1" id="t_2_5-t_2_4_0" lane="t_2_5-t_2_4_0" pos="-60" endPos="-1"/>
  <laneAreaDetector file="NUL" freq="1" id="t_2_5-t_2_4_1" lane="t_2_5-t_2_4_1" pos="-60" endPos="-1"/>
  <laneAreaDetector file="NUL" freq="1" id="t_2_5-t_3_5_0" lane="t_2_5-t_3_5_0" pos="-60" endPos="-1"/>
  <laneAreaDetector file="NUL" freq="1" id="t_2_5-t_3_5_1" lane="t_2_5-t_3_5_1" pos="-60" endPos="-1"/>
  <laneAreaDetector file="NUL" freq="1" id="t_2_5-t_1_5_0" lane="t_2_5-t_1_5_0" pos="-60" endPos="-1"/>
  <laneAreaDetector file="NUL" freq="1" id="t_2_5-t_1_5_1" lane="t_2_5-t_1_5_1" pos="-60" endPos="-1"/>
  <laneAreaDetector file="NUL" freq="1" id="t_3_1-t_3_2_0" lane="t_3_1-t_3_2_0" pos="-60" endPos="-1"/>
  <laneAreaDetector file="NUL" freq="1" id="t_3_1-t_3_2_1" lane="t_3_1-t_3_2_1" pos="-60" endPos="-1"/>
  <laneAreaDetector file="NUL" freq="1" id="t_3_1-t_4_1_0" lane="t_3_1-t_4_1_0" pos="-60" endPos="-1"/>
  <laneAreaDetector file="NUL" freq="1" id="t_3_1-t_4_1_1" lane="t_3_1-t_4_1_1" pos="-60" endPos="-1"/>
  <laneAreaDetector file="NUL" freq="1" id="t_3_1-t_2_1_0" lane="t_3_1-t_2_1_0" pos="-60" endPos="-1"/>
  <laneAreaDetector file="NUL" freq="1" id="t_3_1-t_2_1_1" lane="t_3_1-t_2_1_1" pos="-60" endPos="-1"/>
  <laneAreaDetector file="NUL" freq="1" id="t_3_2-t_3_3_0" lane="t_3_2-t_3_3_0" pos="-60" endPos="-1"/>
  <laneAreaDetector file="NUL" freq="1" id="t_3_2-t_3_3_1" lane="t_3_2-t_3_3_1" pos="-60" endPos="-1"/>
  <laneAreaDetector file="NUL" freq="1" id="t_3_2-t_3_1_0" lane="t_3_2-t_3_1_0" pos="-60" endPos="-1"/>
  <laneAreaDetector file="NUL" freq="1" id="t_3_2-t_3_1_1" lane="t_3_2-t_3_1_1" pos="-60" endPos="-1"/>
  <laneAreaDetector file="NUL" freq="1" id="t_3_2-t_4_2_0" lane="t_3_2-t_4_2_0" pos="-60" endPos="-1"/>
  <laneAreaDetector file="NUL" freq="1" id="t_3_2-t_4_2_1" lane="t_3_2-t_4_2_1" pos="-60" endPos="-1"/>
  <laneAreaDetector file="NUL" freq="1" id="t_3_2-t_2_2_0" lane="t_3_2-t_2_2_0" pos="-60" endPos="-1"/>
  <laneAreaDetector file="NUL" freq="1" id="t_3_2-t_2_2_1" lane="t_3_2-t_2_2_1" pos="-60" endPos="-1"/>
  <laneAreaDetector file="NUL" freq="1" id="t_3_3-t_3_4_0" lane="t_3_3-t_3_4_0" pos="-60" endPos="-1"/>
  <laneAreaDetector file="NUL" freq="1" id="t_3_3-t_3_4_1" lane="t_3_3-t_3_4_1" pos="-60" endPos="-1"/>
  <laneAreaDetector file="NUL" freq="1" id="t_3_3-t_3_2_0" lane="t_3_3-t_3_2_0" pos="-60" endPos="-1"/>
  <laneAreaDetector file="NUL" freq="1" id="t_3_3-t_3_2_1" lane="t_3_3-t_3_2_1" pos="-60" endPos="-1"/>
  <laneAreaDetector file="NUL" freq="1" id="t_3_3-t_4_3_0" lane="t_3_3-t_4_3_0" pos="-60" endPos="-1"/>
  <laneAreaDetector file="NUL" freq="1" id="t_3_3-t_4_3_1" lane="t_3_3-t_4_3_1" pos="-60" endPos="-1"/>
  <laneAreaDetector file="NUL" freq="1" id="t_3_3-t_2_3_0" lane="t_3_3-t_2_3_0" pos="-60" endPos="-1"/>
  <laneAreaDetector file="NUL" freq="1" id="t_3_3-t_2_3_1" lane="t_3_3-t_2_3_1" pos="-60" endPos="-1"/>
  <laneAreaDetector file="NUL" freq="1" id="t_3_4-t_3_5_0" lane="t_3_4-t_3_5_0" pos="-60" endPos="-1"/>
  <laneAreaDetector file="NUL" freq="1" id="t_3_4-t_3_5_1" lane="t_3_4-t_3_5_1" pos="-60" endPos="-1"/>
  <laneAreaDetector file="NUL" freq="1" id="t_3_4-t_3_3_0" lane="t_3_4-t_3_3_0" pos="-60" endPos="-1"/>
  <laneAreaDetector file="NUL" freq="1" id="t_3_4-t_3_3_1" lane="t_3_4-t_3_3_1" pos="-60" endPos="-1"/>
  <laneAreaDetector file="NUL" freq="1" id="t_3_4-t_4_4_0" lane="t_3_4-t_4_4_0" pos="-60" endPos="-1"/>
  <laneAreaDetector file="NUL" freq="1" id="t_3_4-t_4_4_1" lane="t_3_4-t_4_4_1" pos="-60" endPos="-1"/>
  <laneAreaDetector file="NUL" freq="1" id="t_3_4-t_2_4_0" lane="t_3_4-t_2_4_0" pos="-60" endPos="-1"/>
  <laneAreaDetector file="NUL" freq="1" id="t_3_4-t_2_4_1" lane="t_3_4-t_2_4_1" pos="-60" endPos="-1"/>
  <laneAreaDetector file="NUL" freq="1" id="t_3_5-t_3_4_0" lane="t_3_5-t_3_4_0" pos="-60" endPos="-1"/>
  <laneAreaDetector file="NUL" freq="1" id="t_3_5-t_3_4_1" lane="t_3_5-t_3_4_1" pos="-60" endPos="-1"/>
  <laneAreaDetector file="NUL" freq="1" id="t_3_5-t_4_5_0" lane="t_3_5-t_4_5_0" pos="-60" endPos="-1"/>
  <laneAreaDetector file="NUL" freq="1" id="t_3_5-t_4_5_1" lane="t_3_5-t_4_5_1" pos="-60" endPos="-1"/>
  <laneAreaDetector file="NUL" freq="1" id="t_3_5-t_2_5_0" lane="t_3_5-t_2_5_0" pos="-60" endPos="-1"/>
  <laneAreaDetector file="NUL" freq="1" id="t_3_5-t_2_5_1" lane="t_3_5-t_2_5_1" pos="-60" endPos="-1"/>
  <laneAreaDetector file="NUL" freq="1" id="t_4_1-t_4_2_0" lane="t_4_1-t_4_2_0" pos="-60" endPos="-1"/>
  <laneAreaDetector file="NUL" freq="1" id="t_4_1-t_4_2_1" lane="t_4_1-t_4_2_1" pos="-60" endPos="-1"/>
  <laneAreaDetector file="NUL" freq="1" id="t_4_1-t_5_1_0" lane="t_4_1-t_5_1_0" pos="-60" endPos="-1"/>
  <laneAreaDetector file="NUL" freq="1" id="t_4_1-t_5_1_1" lane="t_4_1-t_5_1_1" pos="-60" endPos="-1"/>
  <laneAreaDetector file="NUL" freq="1" id="t_4_1-t_3_1_0" lane="t_4_1-t_3_1_0" pos="-60" endPos="-1"/>
  <laneAreaDetector file="NUL" freq="1" id="t_4_1-t_3_1_1" lane="t_4_1-t_3_1_1" pos="-60" endPos="-1"/>
  <laneAreaDetector file="NUL" freq="1" id="t_4_2-t_4_3_0" lane="t_4_2-t_4_3_0" pos="-60" endPos="-1"/>
  <laneAreaDetector file="NUL" freq="1" id="t_4_2-t_4_3_1" lane="t_4_2-t_4_3_1" pos="-60" endPos="-1"/>
  <laneAreaDetector file="NUL" freq="1" id="t_4_2-t_4_1_0" lane="t_4_2-t_4_1_0" pos="-60" endPos="-1"/>
  <laneAreaDetector file="NUL" freq="1" id="t_4_2-t_4_1_1" lane="t_4_2-t_4_1_1" pos="-60" endPos="-1"/>
  <laneAreaDetector file="NUL" freq="1" id="t_4_2-t_5_2_0" lane="t_4_2-t_5_2_0" pos="-60" endPos="-1"/>
  <laneAreaDetector file="NUL" freq="1" id="t_4_2-t_5_2_1" lane="t_4_2-t_5_2_1" pos="-60" endPos="-1"/>
  <laneAreaDetector file="NUL" freq="1" id="t_4_2-t_3_2_0" lane="t_4_2-t_3_2_0" pos="-60" endPos="-1"/>
  <laneAreaDetector file="NUL" freq="1" id="t_4_2-t_3_2_1" lane="t_4_2-t_3_2_1" pos="-60" endPos="-1"/>
  <laneAreaDetector file="NUL" freq="1" id="t_4_3-t_4_4_0" lane="t_4_3-t_4_4_0" pos="-60" endPos="-1"/>
  <laneAreaDetector file="NUL" freq="1" id="t_4_3-t_4_4_1" lane="t_4_3-t_4_4_1" pos="-60" endPos="-1"/>
  <laneAreaDetector file="NUL" freq="1" id="t_4_3-t_4_2_0" lane="t_4_3-t_4_2_0" pos="-60" endPos="-1"/>
  <laneAreaDetector file="NUL" freq="1" id="t_4_3-t_4_2_1" lane="t_4_3-t_4_2_1" pos="-60" endPos="-1"/>
  <laneAreaDetector file="NUL" freq="1" id="t_4_3-t_5_3_0" lane="t_4_3-t_5_3_0" pos="-60" endPos="-1"/>
  <laneAreaDetector file="NUL" freq="1" id="t_4_3-t_5_3_1" lane="t_4_3-t_5_3_1" pos="-60" endPos="-1"/>
  <laneAreaDetector file="NUL" freq="1" id="t_4_3-t_3_3_0" lane="t_4_3-t_3_3_0" pos="-60" endPos="-1"/>
  <laneAreaDetector file="NUL" freq="1" id="t_4_3-t_3_3_1" lane="t_4_3-t_3_3_1" pos="-60" endPos="-1"/>
  <laneAreaDetector file="NUL" freq="1" id="t_4_4-t_4_5_0" lane="t_4_4-t_4_5_0" pos="-60" endPos="-1"/>
  <laneAreaDetector file="NUL" freq="1" id="t_4_4-t_4_5_1" lane="t_4_4-t_4_5_1" pos="-60" endPos="-1"/>
  <laneAreaDetector file="NUL" freq="1" id="t_4_4-t_4_3_0" lane="t_4_4-t_4_3_0" pos="-60" endPos="-1"/>
  <laneAreaDetector file="NUL" freq="1" id="t_4_4-t_4_3_1" lane="t_4_4-t_4_3_1" pos="-60" endPos="-1"/>
  <laneAreaDetector file="NUL" freq="1" id="t_4_4-t_5_4_0" lane="t_4_4-t_5_4_0" pos="-60" endPos="-1"/>
  <laneAreaDetector file="NUL" freq="1" id="t_4_4-t_5_4_1" lane="t_4_4-t_5_4_1" pos="-60" endPos="-1"/>
  <laneAreaDetector file="NUL" freq="1" id="t_4_4-t_3_4_0" lane="t_4_4-t_3_4_0" pos="-60" endPos="-1"/>
  <laneAreaDetector file="NUL" freq="1" id="t_4_4-t_3_4_1" lane="t_4_4-t_3_4_1" pos="-60" endPos="-1"/>
  <laneAreaDetector file="NUL" freq="1" id="t_4_5-t_4_4_0" lane="t_4_5-t_4_4_0" pos="-60" endPos="-1"/>
  <laneAreaDetector file="NUL" freq="1" id="t_4_5-t_4_4_1" lane="t_4_5-t_4_4_1" pos="-60" endPos="-1"/>
  <laneAreaDetector file="NUL" freq="1" id="t_4_5-t_5_5_0" lane="t_4_5-t_5_5_0" pos="-60" endPos="-1"/>
  <laneAreaDetector file="NUL" freq="1" id="t_4_5-t_5_5_1" lane="t_4_5-t_5_5_1" pos="-60" endPos="-1"/>
  <laneAreaDetector file="NUL" freq="1" id="t_4_5-t_3_5_0" lane="t_4_5-t_3_5_0" pos="-60" endPos="-1"/>
  <laneAreaDetector file="NUL" freq="1" id="t_4_5-t_3_5_1" lane="t_4_5-t_3_5_1" pos="-60" endPos="-1"/>
  <laneAreaDetector file="NUL" freq="1" id="t_5_1-t_5_2_0" lane="t_5_1-t_5_2_0" pos="-60" endPos="-1"/>
  <laneAreaDetector file="NUL" freq="1" id="t_5_1-t_5_2_1" lane="t_5_1-t_5_2_1" pos="-60" endPos="-1"/>
  <laneAreaDetector file="NUL" freq="1" id="t_5_1-t_4_1_0" lane="t_5_1-t_4_1_0" pos="-60" endPos="-1"/>
  <laneAreaDetector file="NUL" freq="1" id="t_5_1-t_4_1_1" lane="t_5_1-t_4_1_1" pos="-60" endPos="-1"/>
  <laneAreaDetector file="NUL" freq="1" id="t_5_2-t_5_3_0" lane="t_5_2-t_5_3_0" pos="-60" endPos="-1"/>
  <laneAreaDetector file="NUL" freq="1" id="t_5_2-t_5_3_1" lane="t_5_2-t_5_3_1" pos="-60" endPos="-1"/>
  <laneAreaDetector file="NUL" freq="1" id="t_5_2-t_5_1_0" lane="t_5_2-t_5_1_0" pos="-60" endPos="-1"/>
  <laneAreaDetector file="NUL" freq="1" id="t_5_2-t_5_1_1" lane="t_5_2-t_5_1_1" pos="-60" endPos="-1"/>
  <laneAreaDetector file="NUL" freq="1" id="t_5_2-t_4_2_0" lane="t_5_2-t_4_2_0" pos="-60" endPos="-1"/>
  <laneAreaDetector file="NUL" freq="1" id="t_5_2-t_4_2_1" lane="t_5_2-t_4_2_1" pos="-60" endPos="-1"/>
  <laneAreaDetector file="NUL" freq="1" id="t_5_3-t_5_4_0" lane="t_5_3-t_5_4_0" pos="-60" endPos="-1"/>
  <laneAreaDetector file="NUL" freq="1" id="t_5_3-t_5_4_1" lane="t_5_3-t_5_4_1" pos="-60" endPos="-1"/>
  <laneAreaDetector file="NUL" freq="1" id="t_5_3-t_5_2_0" lane="t_5_3-t_5_2_0" pos="-60" endPos="-1"/>
  <laneAreaDetector file="NUL" freq="1" id="t_5_3-t_5_2_1" lane="t_5_3-t_5_2_1" pos="-60" endPos="-1"/>
  <laneAreaDetector file="NUL" freq="1" id="t_5_3-t_4_3_0" lane="t_5_3-t_4_3_0" pos="-60" endPos="-1"/>
  <laneAreaDetector file="NUL" freq="1" id="t_5_3-t_4_3_1" lane="t_5_3-t_4_3_1" pos="-60" endPos="-1"/>
  <laneAreaDetector file="NUL" freq="1" id="t_5_4-t_5_5_0" lane="t_5_4-t_5_5_0" pos="-60" endPos="-1"/>
  <laneAreaDetector file="NUL" freq="1" id="t_5_4-t_5_5_1" lane="t_5_4-t_5_5_1" pos="-60" endPos="-1"/>
  <laneAreaDetector file="NUL" freq="1" id="t_5_4-t_5_3_0" lane="t_5_4-t_5_3_0" pos="-60" endPos="-1"/>
  <laneAreaDetector file="NUL" freq="1" id="t_5_4-t_5_3_1" lane="t_5_4-t_5_3_1" pos="-60" endPos="-1"/>
  <laneAreaDetector file="NUL" freq="1" id="t_5_4-t_4_4_0" lane="t_5_4-t_4_4_0" pos="-60" endPos="-1"/>
  <laneAreaDetector file="NUL" freq="1" id="t_5_4-t_4_4_1" lane="t_5_4-t_4_4_1" pos="-60" endPos="-1"/>
  <laneAreaDetector file="NUL" freq="1" id="t_5_5-t_5_4_0" lane="t_5_5-t_5_4_0" pos="-60" endPos="-1"/>
  <laneAreaDetector file="NUL" freq="1" id="t_5_5-t_5_4_1" lane="t_5_5-t_5_4_1" pos="-60" endPos="-1"/>
  <laneAreaDetector file="NUL" freq="1" id="t_5_5-t_4_5_0" lane="t_5_5-t_4_5_0" pos="-60" endPos="-1"/>
  <laneAreaDetector file="NUL" freq="1" id="t_5_5-t_4_5_1" lane="t_5_5-t_4_5_1" pos="-60" endPos="-1"/>
  <laneAreaDetector file="NUL" freq="1" id="p_0_1-t_1_1_0" lane="p_0_1-t_1_1_0" pos="-60" endPos="-1"/>
  <laneAreaDetector file="NUL" freq="1" id="p_0_1-t_1_1_1" lane="p_0_1-t_1_1_1" pos="-60" endPos="-1"/>
  <laneAreaDetector file="NUL" freq="1" id="p_1_0-t_1_1_0" lane="p_1_0-t_1_1_0" pos="-60" endPos="-1"/>
  <laneAreaDetector file="NUL" freq="1" id="p_1_0-t_1_1_1" lane="p_1_0-t_1_1_1" pos="-60" endPos="-1"/>
  <laneAreaDetector file="NUL" freq="1" id="p_6_1-t_5_1_0" lane="p_6_1-t_5_1_0" pos="-60" endPos="-1"/>
  <laneAreaDetector file="NUL" freq="1" id="p_6_1-t_5_1_1" lane="p_6_1-t_5_1_1" pos="-60" endPos="-1"/>
  <laneAreaDetector file="NUL" freq="1" id="p_1_6-t_1_5_0" lane="p_1_6-t_1_5_0" pos="-60" endPos="-1"/>
  <laneAreaDetector file="NUL" freq="1" id="p_1_6-t_1_5_1" lane="p_1_6-t_1_5_1" pos="-60" endPos="-1"/>
  <laneAreaDetector file="NUL" freq="1" id="p_0_2-t_1_2_0" lane="p_0_2-t_1_2_0" pos="-60" endPos="-1"/>
  <laneAreaDetector file="NUL" freq="1" id="p_0_2-t_1_2_1" lane="p_0_2-t_1_2_1" pos="-60" endPos="-1"/>
  <laneAreaDetector file="NUL" freq="1" id="p_2_0-t_2_1_0" lane="p_2_0-t_2_1_0" pos="-60" endPos="-1"/>
  <laneAreaDetector file="NUL" freq="1" id="p_2_0-t_2_1_1" lane="p_2_0-t_2_1_1" pos="-60" endPos="-1"/>
  <laneAreaDetector file="NUL" freq="1" id="p_6_2-t_5_2_0" lane="p_6_2-t_5_2_0" pos="-60" endPos="-1"/>
  <laneAreaDetector file="NUL" freq="1" id="p_6_2-t_5_2_1" lane="p_6_2-t_5_2_1" pos="-60" endPos="-1"/>
  <laneAreaDetector file="NUL" freq="1" id="p_2_6-t_2_5_0" lane="p_2_6-t_2_5_0" pos="-60" endPos="-1"/>
  <laneAreaDetector file="NUL" freq="1" id="p_2_6-t_2_5_1" lane="p_2_6-t_2_5_1" pos="-60" endPos="-1"/>
  <laneAreaDetector file="NUL" freq="1" id="p_0_3-t_1_3_0" lane="p_0_3-t_1_3_0" pos="-60" endPos="-1"/>
  <laneAreaDetector file="NUL" freq="1" id="p_0_3-t_1_3_1" lane="p_0_3-t_1_3_1" pos="-60" endPos="-1"/>
  <laneAreaDetector file="NUL" freq="1" id="p_3_0-t_3_1_0" lane="p_3_0-t_3_1_0" pos="-60" endPos="-1"/>
  <laneAreaDetector file="NUL" freq="1" id="p_3_0-t_3_1_1" lane="p_3_0-t_3_1_1" pos="-60" endPos="-1"/>
  <laneAreaDetector file="NUL" freq="1" id="p_6_3-t_5_3_0" lane="p_6_3-t_5_3_0" pos="-60" endPos="-1"/>
  <laneAreaDetector file="NUL" freq="1" id="p_6_3-t_5_3_1" lane="p_6_3-t_5_3_1" pos="-60" endPos="-1"/>
  <laneAreaDetector file="NUL" freq="1" id="p_3_6-t_3_5_0" lane="p_3_6-t_3_5_0" pos="-60" endPos="-1"/>
  <laneAreaDetector file="NUL" freq="1" id="p_3_6-t_3_5_1" lane="p_3_6-t_3_5_1" pos="-60" endPos="-1"/>
  <laneAreaDetector file="NUL" freq="1" id="p_0_4-t_1_4_0" lane="p_0_4-t_1_4_0" pos="-60" endPos="-1"/>
  <laneAreaDetector file="NUL" freq="1" id="p_0_4-t_1_4_1" lane="p_0_4-t_1_4_1" pos="-60" endPos="-1"/>
  <laneAreaDetector file="NUL" freq="1" id="p_4_0-t_4_1_0" lane="p_4_0-t_4_1_0" pos="-60" endPos="-1"/>
  <laneAreaDetector file="NUL" freq="1" id="p_4_0-t_4_1_1" lane="p_4_0-t_4_1_1" pos="-60" endPos="-1"/>
  <laneAreaDetector file="NUL" freq="1" id="p_6_4-t_5_4_0" lane="p_6_4-t_5_4_0" pos="-60" endPos="-1"/>
  <laneAreaDetector file="NUL" freq="1" id="p_6_4-t_5_4_1" lane="p_6_4-t_5_4_1" pos="-60" endPos="-1"/>
  <laneAreaDetector file="NUL" freq="1" id="p_4_6-t_4_5_0" lane="p_4_6-t_4_5_0" pos="-60" endPos="-1"/>
  <laneAreaDetector file="NUL" freq="1" id="p_4_6-t_4_5_1" lane="p_4_6-t_4_5_1" pos="-60" endPos="-1"/>
  <laneAreaDetector file="NUL" freq="1" id="p_0_5-t_1_5_0" lane="p_0_5-t_1_5_0" pos="-60" endPos="-1"/>
  <laneAreaDetector file="NUL" freq="1" id="p_0_5-t_1_5_1" lane="p_0_5-t_1_5_1" pos="-60" endPos="-1"/>
  <laneAreaDetector file="NUL" freq="1" id="p_5_0-t_5_1_0" lane="p_5_0-t_5_1_0" pos="-60" endPos="-1"/>
  <laneAreaDetector file="NUL" freq="1" id="p_5_0-t_5_1_1" lane="p_5_0-t_5_1_1" pos="-60" endPos="-1"/>
  <laneAreaDetector file="NUL" freq="1" id="p_6_5-t_5_5_0" lane="p_6_5-t_5_5_0" pos="-60" endPos="-1"/>
  <laneAreaDetector file="NUL" freq="1" id="p_6_5-t_5_5_1" lane="p_6_5-t_5_5_1" pos="-60" endPos="-1"/>
  <laneAreaDetector file="NUL" freq="1" id="p_5_6-t_5_5_0" lane="p_5_6-t_5_5_0" pos="-60" endPos="-1"/>
  <laneAreaDetector file="NUL" freq="1" id="p_5_6-t_5_5_1" lane="p_5_6-t_5_5_1" pos="-60" endPos="-1"/>
<inductionLoop file="NUL" freq="1" id="t_1_1-t_1_2_0" lane="t_1_1-t_1_2_0" pos="10"/>
<inductionLoop file="NUL" freq="1" id="t_1_1-t_1_2_1" lane="t_1_1-t_1_2_1" pos="10"/>
<inductionLoop file="NUL" freq="1" id="t_1_1-t_2_1_0" lane="t_1_1-t_2_1_0" pos="10"/>
<inductionLoop file="NUL" freq="1" id="t_1_1-t_2_1_1" lane="t_1_1-t_2_1_1" pos="10"/>
<inductionLoop file="NUL" freq="1" id="t_1_2-t_1_3_0" lane="t_1_2-t_1_3_0" pos="10"/>
<inductionLoop file="NUL" freq="1" id="t_1_2-t_1_3_1" lane="t_1_2-t_1_3_1" pos="10"/>
<inductionLoop file="NUL" freq="1" id="t_1_2-t_1_1_0" lane="t_1_2-t_1_1_0" pos="10"/>
<inductionLoop file="NUL" freq="1" id="t_1_2-t_1_1_1" lane="t_1_2-t_1_1_1" pos="10"/>
<inductionLoop file="NUL" freq="1" id="t_1_2-t_2_2_0" lane="t_1_2-t_2_2_0" pos="10"/>
<inductionLoop file="NUL" freq="1" id="t_1_2-t_2_2_1" lane="t_1_2-t_2_2_1" pos="10"/>
<inductionLoop file="NUL" freq="1" id="t_1_3-t_1_4_0" lane="t_1_3-t_1_4_0" pos="10"/>
<inductionLoop file="NUL" freq="1" id="t_1_3-t_1_4_1" lane="t_1_3-t_1_4_1" pos="10"/>
<inductionLoop file="NUL" freq="1" id="t_1_3-t_1_2_0" lane="t_1_3-t_1_2_0" pos="10"/>
<inductionLoop file="NUL" freq="1" id="t_1_3-t_1_2_1" lane="t_1_3-t_1_2_1" pos="10"/>
<inductionLoop file="NUL" freq="1" id="t_1_3-t_2_3_0" lane="t_1_3-t_2_3_0" pos="10"/>
<inductionLoop file="NUL" freq="1" id="t_1_3-t_2_3_1" lane="t_1_3-t_2_3_1" pos="10"/>
<inductionLoop file="NUL" freq="1" id="t_1_4-t_1_5_0" lane="t_1_4-t_1_5_0" pos="10"/>
<inductionLoop file="NUL" freq="1" id="t_1_4-t_1_5_1" lane="t_1_4-t_1_5_1" pos="10"/>
<inductionLoop file="NUL" freq="1" id="t_1_4-t_1_3_0" lane="t_1_4-t_1_3_0" pos="10"/>
<inductionLoop file="NUL" freq="1" id="t_1_4-t_1_3_1" lane="t_1_4-t_1_3_1" pos="10"/>
<inductionLoop file="NUL" freq="1" id="t_1_4-t_2_4_0" lane="t_1_4-t_2_4_0" pos="10"/>
<inductionLoop file="NUL" freq="1" id="t_1_4-t_2_4_1" lane="t_1_4-t_2_4_1" pos="10"/>
<inductionLoop file="NUL" freq="1" id="t_1_5-t_1_4_0" lane="t_1_5-t_1_4_0" pos="10"/>
<inductionLoop file="NUL" freq="1" id="t_1_5-t_1_4_1" lane="t_1_5-t_1_4_1" pos="10"/>
<inductionLoop file="NUL" freq="1" id="t_1_5-t_2_5_0" lane="t_1_5-t_2_5_0" pos="10"/>
<inductionLoop file="NUL" freq="1" id="t_1_5-t_2_5_1" lane="t_1_5-t_2_5_1" pos="10"/>
<inductionLoop file="NUL" freq="1" id="t_2_1-t_2_2_0" lane="t_2_1-t_2_2_0" pos="10"/>
<inductionLoop file="NUL" freq="1" id="t_2_1-t_2_2_1" lane="t_2_1-t_2_2_1" pos="10"/>
<inductionLoop file="NUL" freq="1" id="t_2_1-t_3_1_0" lane="t_2_1-t_3_1_0" pos="10"/>
<inductionLoop file="NUL" freq="1" id="t_2_1-t_3_1_1" lane="t_2_1-t_3_1_1" pos="10"/>
<inductionLoop file="NUL" freq="1" id="t_2_1-t_1_1_0" lane="t_2_1-t_1_1_0" pos="10"/>
<inductionLoop file="NUL" freq="1" id="t_2_1-t_1_1_1" lane="t_2_1-t_1_1_1" pos="10"/>
<inductionLoop file="NUL" freq="1" id="t_2_2-t_2_3_0" lane="t_2_2-t_2_3_0" pos="10"/>
<inductionLoop file="NUL" freq="1" id="t_2_2-t_2_3_1" lane="t_2_2-t_2_3_1" pos="10"/>
<inductionLoop file="NUL" freq="1" id="t_2_2-t_2_1_0" lane="t_2_2-t_2_1_0" pos="10"/>
<inductionLoop file="NUL" freq="1" id="t_2_2-t_2_1_1" lane="t_2_2-t_2_1_1" pos="10"/>
<inductionLoop file="NUL" freq="1" id="t_2_2-t_3_2_0" lane="t_2_2-t_3_2_0" pos="10"/>
<inductionLoop file="NUL" freq="1" id="t_2_2-t_3_2_1" lane="t_2_2-t_3_2_1" pos="10"/>
<inductionLoop file="NUL" freq="1" id="t_2_2-t_1_2_0" lane="t_2_2-t_1_2_0" pos="10"/>
<inductionLoop file="NUL" freq="1" id="t_2_2-t_1_2_1" lane="t_2_2-t_1_2_1" pos="10"/>
<inductionLoop file="NUL" freq="1" id="t_2_3-t_2_4_0" lane="t_2_3-t_2_4_0" pos="10"/>
<inductionLoop file="NUL" freq="1" id="t_2_3-t_2_4_1" lane="t_2_3-t_2_4_1" pos="10"/>
<inductionLoop file="NUL" freq="1" id="t_2_3-t_2_2_0" lane="t_2_3-t_2_2_0" pos="10"/>
<inductionLoop file="NUL" freq="1" id="t_2_3-t_2_2_1" lane="t_2_3-t_2_2_1" pos="10"/>
<inductionLoop file="NUL" freq="1" id="t_2_3-t_3_3_0" lane="t_2_3-t_3_3_0" pos="10"/>
<inductionLoop file="NUL" freq="1" id="t_2_3-t_3_3_1" lane="t_2_3-t_3_3_1" pos="10"/>
<inductionLoop file="NUL" freq="1" id="t_2_3-t_1_3_0" lane="t_2_3-t_1_3_0" pos="10"/>
<inductionLoop file="NUL" freq="1" id="t_2_3-t_1_3_1" lane="t_2_3-t_1_3_1" pos="10"/>
<inductionLoop file="NUL" freq="1" id="t_2_4-t_2_5_0" lane="t_2_4-t_2_5_0" pos="10"/>
<inductionLoop file="NUL" freq="1" id="t_2_4-t_2_5_1" lane="t_2_4-t_2_5_1" pos="10"/>
<inductionLoop file="NUL" freq="1" id="t_2_4-t_2_3_0" lane="t_2_4-t_2_3_0" pos="10"/>
<inductionLoop file="NUL" freq="1" id="t_2_4-t_2_3_1" lane="t_2_4-t_2_3_1" pos="10"/>
<inductionLoop file="NUL" freq="1" id="t_2_4-t_3_4_0" lane="t_2_4-t_3_4_0" pos="10"/>
<inductionLoop file="NUL" freq="1" id="t_2_4-t_3_4_1" lane="t_2_4-t_3_4_1" pos="10"/>
<inductionLoop file="NUL" freq="1" id="t_2_4-t_1_4_0" lane="t_2_4-t_1_4_0" pos="10"/>
<inductionLoop file="NUL" freq="1" id="t_2_4-t_1_4_1" lane="t_2_4-t_1_4_1" pos="10"/>
<inductionLoop file="NUL" freq="1" id="t_2_5-t_2_4_0" lane="t_2_5-t_2_4_0" pos="10"/>
<inductionLoop file="NUL" freq="1" id="t_2_5-t_2_4_1" lane="t_2_5-t_2_4_1" pos="10"/>
<inductionLoop file="NUL" freq="1" id="t_2_5-t_3_5_0" lane="t_2_5-t_3_5_0" pos="10"/>
<inductionLoop file="NUL" freq="1" id="t_2_5-t_3_5_1" lane="t_2_5-t_3_5_1" pos="10"/>
<inductionLoop file="NUL" freq="1" id="t_2_5-t_1_5_0" lane="t_2_5-t_1_5_0" pos="10"/>
<inductionLoop file="NUL" freq="1" id="t_2_5-t_1_5_1" lane="t_2_5-t_1_5_1" pos="10"/>
<inductionLoop file="NUL" freq="1" id="t_3_1-t_3_2_0" lane="t_3_1-t_3_2_0" pos="10"/>
<inductionLoop file="NUL" freq="1" id="t_3_1-t_3_2_1" lane="t_3_1-t_3_2_1" pos="10"/>
<inductionLoop file="NUL" freq="1" id="t_3_1-t_4_1_0" lane="t_3_1-t_4_1_0" pos="10"/>
<inductionLoop file="NUL" freq="1" id="t_3_1-t_4_1_1" lane="t_3_1-t_4_1_1" pos="10"/>
<inductionLoop file="NUL" freq="1" id="t_3_1-t_2_1_0" lane="t_3_1-t_2_1_0" pos="10"/>
<inductionLoop file="NUL" freq="1" id="t_3_1-t_2_1_1" lane="t_3_1-t_2_1_1" pos="10"/>
<inductionLoop file="NUL" freq="1" id="t_3_2-t_3_3_0" lane="t_3_2-t_3_3_0" pos="10"/>
<inductionLoop file="NUL" freq="1" id="t_3_2-t_3_3_1" lane="t_3_2-t_3_3_1" pos="10"/>
<inductionLoop file="NUL" freq="1" id="t_3_2-t_3_1_0" lane="t_3_2-t_3_1_0" pos="10"/>
<inductionLoop file="NUL" freq="1" id="t_3_2-t_3_1_1" lane="t_3_2-t_3_1_1" pos="10"/>
<inductionLoop file="NUL" freq="1" id="t_3_2-t_4_2_0" lane="t_3_2-t_4_2_0" pos="10"/>
<inductionLoop file="NUL" freq="1" id="t_3_2-t_4_2_1" lane="t_3_2-t_4_2_1" pos="10"/>
<inductionLoop file="NUL" freq="1" id="t_3_2-t_2_2_0" lane="t_3_2-t_2_2_0" pos="10"/>
<inductionLoop file="NUL" freq="1" id="t_3_2-t_2_2_1" lane="t_3_2-t_2_2_1" pos="10"/>
<inductionLoop file="NUL" freq="1" id="t_3_3-t_3_4_0" lane="t_3_3-t_3_4_0" pos="10"/>
<inductionLoop file="NUL" freq="1" id="t_3_3-t_3_4_1" lane="t_3_3-t_3_4_1" pos="10"/>
<inductionLoop file="NUL" freq="1" id="t_3_3-t_3_2_0" lane="t_3_3-t_3_2_0" pos="10"/>
<inductionLoop file="NUL" freq="1" id="t_3_3-t_3_2_1" lane="t_3_3-t_3_2_1" pos="10"/>
<inductionLoop file="NUL" freq="1" id="t_3_3-t_4_3_0" lane="t_3_3-t_4_3_0" pos="10"/>
<inductionLoop file="NUL" freq="1" id="t_3_3-t_4_3_1" lane="t_3_3-t_4_3_1" pos="10"/>
<inductionLoop file="NUL" freq="1" id="t_3_3-t_2_3_0" lane="t_3_3-t_2_3_0" pos="10"/>
<inductionLoop file="NUL" freq="1" id="t_3_3-t_2_3_1" lane="t_3_3-t_2_3_1" pos="10"/>
<inductionLoop file="NUL" freq="1" id="t_3_4-t_3_5_0" lane="t_3_4-t_3_5_0" pos="10"/>
<inductionLoop file="NUL" freq="1" id="t_3_4-t_3_5_1" lane="t_3_4-t_3_5_1" pos="10"/>
<inductionLoop file="NUL" freq="1" id="t_3_4-t_3_3_0" lane="t_3_4-t_3_3_0" pos="10"/>
<inductionLoop file="NUL" freq="1" id="t_3_4-t_3_3_1" lane="t_3_4-t_3_3_1" pos="10"/>
<inductionLoop file="NUL" freq="1" id="t_3_4-t_4_4_0" lane="t_3_4-t_4_4_0" pos="10"/>
<inductionLoop file="NUL" freq="1" id="t_3_4-t_4_4_1" lane="t_3_4-t_4_4_1" pos="10"/>
<inductionLoop file="NUL" freq="1" id="t_3_4-t_2_4_0" lane="t_3_4-t_2_4_0" pos="10"/>
<inductionLoop file="NUL" freq="1" id="t_3_4-t_2_4_1" lane="t_3_4-t_2_4_1" pos="10"/>
<inductionLoop file="NUL" freq="1" id="t_3_5-t_3_4_0" lane="t_3_5-t_3_4_0" pos="10"/>
<inductionLoop file="NUL" freq="1" id="t_3_5-t_3_4_1" lane="t_3_5-t_3_4_1" pos="10"/>
<inductionLoop file="NUL" freq="1" id="t_3_5-t_4_5_0" lane="t_3_5-t_4_5_0" pos="10"/>
<inductionLoop file="NUL" freq="1" id="t_3_5-t_4_5_1" lane="t_3_5-t_4_5_1" pos="10"/>
<inductionLoop file="NUL" freq="1" id="t_3_5-t_2_5_0" lane="t_3_5-t_2_5_0" pos="10"/>
<inductionLoop file="NUL" freq="1" id="t_3_5-t_2_5_1" lane="t_3_5-t_2_5_1" pos="10"/>
<inductionLoop file="NUL" freq="1" id="t_4_1-t_4_2_0" lane="t_4_1-t_4_2_0" pos="10"/>
<inductionLoop file="NUL" freq="1" id="t_4_1-t_4_2_1" lane="t_4_1-t_4_2_1" pos="10"/>
<inductionLoop file="NUL" freq="1" id="t_4_1-t_5_1_0" lane="t_4_1-t_5_1_0" pos="10"/>
<inductionLoop file="NUL" freq="1" id="t_4_1-t_5_1_1" lane="t_4_1-t_5_1_1" pos="10"/>
<inductionLoop file="NUL" freq="1" id="t_4_1-t_3_1_0" lane="t_4_1-t_3_1_0" pos="10"/>
<inductionLoop file="NUL" freq="1" id="t_4_1-t_3_1_1" lane="t_4_1-t_3_1_1" pos="10"/>
<inductionLoop file="NUL" freq="1" id="t_4_2-t_4_3_0" lane="t_4_2-t_4_3_0" pos="10"/>
<inductionLoop file="NUL" freq="1" id="t_4_2-t_4_3_1" lane="t_4_2-t_4_3_1" pos="10"/>