<connections>
  <connection from="p_0_1-t_1_1" to="t_1_1-t_2_1" fromLane="1" toLane="2"/>
  <connection from="p_0_1-t_1_1" to="t_1_1-t_2_1" fromLane="1" toLane="1"/>
  <connection from="p_0_1-t_1_1" to="t_1_1-t_2_1" fromLane="1" toLane="0"/>
  <connection from="p_0_1-t_1_1" to="t_1_1-t_1_2" fromLane="2" toLane="2"/>
  <connection from="p_0_1-t_1_1" to="t_1_1-t_1_2" fromLane="2" toLane="1"/>
  <connection from="p_0_1-t_1_1" to="t_1_1-t_1_2" fromLane="2" toLane="0"/>
  <connection from="p_0_1-t_1_1" to="t_1_1-p_1_0" fromLane="0" toLane="2"/>
  <connection from="p_0_1-t_1_1" to="t_1_1-p_1_0" fromLane="0" toLane="1"/>
  <connection from="p_0_1-t_1_1" to="t_1_1-p_1_0" fromLane="0" toLane="0"/>
  <connection from="p_1_0-t_1_1" to="t_1_1-t_2_1" fromLane="0" toLane="2"/>
  <connection from="p_1_0-t_1_1" to="t_1_1-t_2_1" fromLane="0" toLane="1"/>
  <connection from="p_1_0-t_1_1" to="t_1_1-t_2_1" fromLane="0" toLane="0"/>
  <connection from="p_1_0-t_1_1" to="t_1_1-t_1_2" fromLane="1" toLane="2"/>
  <connection from="p_1_0-t_1_1" to="t_1_1-t_1_2" fromLane="1" toLane="1"/>
  <connection from="p_1_0-t_1_1" to="t_1_1-t_1_2" fromLane="1" toLane="0"/>
  <connection from="p_1_0-t_1_1" to="t_1_1-p_0_1" fromLane="2" toLane="2"/>
  <connection from="p_1_0-t_1_1" to="t_1_1-p_0_1" fromLane="2" toLane="1"/>
  <connection from="p_1_0-t_1_1" to="t_1_1-p_0_1" fromLane="2" toLane="0"/>
  <connection from="t_2_1-t_1_1" to="t_1_1-t_1_2" fromLane="0" toLane="2"/>
  <connection from="t_2_1-t_1_1" to="t_1_1-t_1_2" fromLane="0" toLane="1"/>
  <connection from="t_2_1-t_1_1" to="t_1_1-t_1_2" fromLane="0" toLane="0"/>
  <connection from="t_2_1-t_1_1" to="t_1_1-p_0_1" fromLane="1" toLane="2"/>
  <connection from="t_2_1-t_1_1" to="t_1_1-p_0_1" fromLane="1" toLane="1"/>
  <connection from="t_2_1-t_1_1" to="t_1_1-p_0_1" fromLane="1" toLane="0"/>
  <connection from="t_2_1-t_1_1" to="t_1_1-p_1_0" fromLane="2" toLane="2"/>
  <connection from="t_2_1-t_1_1" to="t_1_1-p_1_0" fromLane="2" toLane="1"/>
  <connection from="t_2_1-t_1_1" to="t_1_1-p_1_0" fromLane="2" toLane="0"/>
  <connection from="t_1_2-t_1_1" to="t_1_1-t_2_1" fromLane="2" toLane="2"/>
  <connection from="t_1_2-t_1_1" to="t_1_1-t_2_1" fromLane="2" toLane="1"/>
  <connection from="t_1_2-t_1_1" to="t_1_1-t_2_1" fromLane="2" toLane="0"/>
  <connection from="t_1_2-t_1_1" to="t_1_1-p_0_1" fromLane="0" toLane="2"/>
  <connection from="t_1_2-t_1_1" to="t_1_1-p_0_1" fromLane="0" toLane="1"/>
  <connection from="t_1_2-t_1_1" to="t_1_1-p_0_1" fromLane="0" toLane="0"/>
  <connection from="t_1_2-t_1_1" to="t_1_1-p_1_0" fromLane="1" toLane="2"/>
  <connection from="t_1_2-t_1_1" to="t_1_1-p_1_0" fromLane="1" toLane="1"/>
  <connection from="t_1_2-t_1_1" to="t_1_1-p_1_0" fromLane="1" toLane="0"/>
  <connection from="p_0_2-t_1_2" to="t_1_2-t_2_2" fromLane="1" toLane="2"/>
  <connection from="p_0_2-t_1_2" to="t_1_2-t_2_2" fromLane="1" toLane="1"/>
  <connection from="p_0_2-t_1_2" to="t_1_2-t_2_2" fromLane="1" toLane="0"/>
  <connection from="p_0_2-t_1_2" to="t_1_2-t_1_3" fromLane="2" toLane="2"/>
  <connection from="p_0_2-t_1_2" to="t_1_2-t_1_3" fromLane="2" toLane="1"/>
  <connection from="p_0_2-t_1_2" to="t_1_2-t_1_3" fromLane="2" toLane="0"/>
  <connection from="p_0_2-t_1_2" to="t_1_2-t_1_1" fromLane="0" toLane="2"/>
  <connection from="p_0_2-t_1_2" to="t_1_2-t_1_1" fromLane="0" toLane="1"/>
  <connection from="p_0_2-t_1_2" to="t_1_2-t_1_1" fromLane="0" toLane="0"/>
  <connection from="t_1_1-t_1_2" to="t_1_2-t_2_2" fromLane="0" toLane="2"/>
  <connection from="t_1_1-t_1_2" to="t_1_2-t_2_2" fromLane="0" toLane="1"/>
  <connection from="t_1_1-t_1_2" to="t_1_2-t_2_2" fromLane="0" toLane="0"/>
  <connection from="t_1_1-t_1_2" to="t_1_2-t_1_3" fromLane="1" toLane="2"/>
  <connection from="t_1_1-t_1_2" to="t_1_2-t_1_3" fromLane="1" toLane="1"/>
  <connection from="t_1_1-t_1_2" to="t_1_2-t_1_3" fromLane="1" toLane="0"/>
  <connection from="t_1_1-t_1_2" to="t_1_2-p_0_2" fromLane="2" toLane="2"/>
  <connection from="t_1_1-t_1_2" to="t_1_2-p_0_2" fromLane="2" toLane="1"/>
  <connection from="t_1_1-t_1_2" to="t_1_2-p_0_2" fromLane="2" toLane="0"/>
  <connection from="t_2_2-t_1_2" to="t_1_2-t_1_3" fromLane="0" toLane="2"/>
  <connection from="t_2_2-t_1_2" to="t_1_2-t_1_3" fromLane="0" toLane="1"/>
  <connection from="t_2_2-t_1_2" to="t_1_2-t_1_3" fromLane="0" toLane="0"/>
  <connection from="t_2_2-t_1_2" to="t_1_2-p_0_2" fromLane="1" toLane="2"/>
  <connection from="t_2_2-t_1_2" to="t_1_2-p_0_2" fromLane="1" toLane="1"/>
  <connection from="t_2_2-t_1_2" to="t_1_2-p_0_2" fromLane="1" toLane="0"/>
  <connection from="t_2_2-t_1_2" to="t_1_2-t_1_1" fromLane="2" toLane="2"/>
  <connection from="t_2_2-t_1_2" to="t_1_2-t_1_1" fromLane="2" toLane="1"/>
  <connection from="t_2_2-t_1_2" to="t_1_2-t_1_1" fromLane="2" toLane="0"/>
  <connection from="t_1_3-t_1_2" to="t_1_2-t_2_2" fromLane="2" toLane="2"/>
  <connection from="t_1_3-t_1_2" to="t_1_2-t_2_2" fromLane="2" toLane="1"/>
  <connection from="t_1_3-t_1_2" to="t_1_2-t_2_2" fromLane="2" toLane="0"/>
  <connection from="t_1_3-t_1_2" to="t_1_2-p_0_2" fromLane="0" toLane="2"/>
  <connection from="t_1_3-t_1_2" to="t_1_2-p_0_2" fromLane="0" toLane="1"/>
  <connection from="t_1_3-t_1_2" to="t_1_2-p_0_2" fromLane="0" toLane="0"/>
  <connection from="t_1_3-t_1_2" to="t_1_2-t_1_1" fromLane="1" toLane="2"/>
  <connection from="t_1_3-t_1_2" to="t_1_2-t_1_1" fromLane="1" toLane="1"/>
  <connection from="t_1_3-t_1_2" to="t_1_2-t_1_1" fromLane="1" toLane="0"/>
  <connection from="p_0_3-t_1_3" to="t_1_3-t_2_3" fromLane="1" toLane="2"/>
  <connection from="p_0_3-t_1_3" to="t_1_3-t_2_3" fromLane="1" toLane="1"/>
  <connection from="p_0_3-t_1_3" to="t_1_3-t_2_3" fromLane="1" toLane="0"/>
  <connection from="p_0_3-t_1_3" to="t_1_3-t_1_4" fromLane="2" toLane="2"/>
  <connection from="p_0_3-t_1_3" to="t_1_3-t_1_4" fromLane="2" toLane="1"/>
  <connection from="p_0_3-t_1_3" to="t_1_3-t_1_4" fromLane="2" toLane="0"/>
  <connection from="p_0_3-t_1_3" to="t_1_3-t_1_2" fromLane="0" toLane="2"/>
  <connection from="p_0_3-t_1_3" to="t_1_3-t_1_2" fromLane="0" toLane="1"/>
  <connection from="p_0_3-t_1_3" to="t_1_3-t_1_2" fromLane="0" toLane="0"/>
  <connection from="t_1_2-t_1_3" to="t_1_3-t_2_3" fromLane="0" toLane="2"/>
  <connection from="t_1_2-t_1_3" to="t_1_3-t_2_3" fromLane="0" toLane="1"/>
  <connection from="t_1_2-t_1_3" to="t_1_3-t_2_3" fromLane="0" toLane="0"/>
  <connection from="t_1_2-t_1_3" to="t_1_3-t_1_4" fromLane="1" toLane="2"/>
  <connection from="t_1_2-t_1_3" to="t_1_3-t_1_4" fromLane="1" toLane="1"/>
  <connection from="t_1_2-t_1_3" to="t_1_3-t_1_4" fromLane="1" toLane="0"/>
  <connection from="t_1_2-t_1_3" to="t_1_3-p_0_3" fromLane="2" toLane="2"/>
  <connection from="t_1_2-t_1_3" to="t_1_3-p_0_3" fromLane="2" toLane="1"/>
  <connection from="t_1_2-t_1_3" to="t_1_3-p_0_3" fromLane="2" toLane="0"/>
  <connection from="t_2_3-t_1_3" to="t_1_3-t_1_4" fromLane="0" toLane="2"/>
  <connection from="t_2_3-t_1_3" to="t_1_3-t_1_4" fromLane="0" toLane="1"/>
  <connection from="t_2_3-t_1_3" to="t_1_3-t_1_4" fromLane="0" toLane="0"/>
  <connection from="t_2_3-t_1_3" to="t_1_3-p_0_3" fromLane="1" toLane="2"/>
  <connection from="t_2_3-t_1_3" to="t_1_3-p_0_3" fromLane="1" toLane="1"/>
  <connection from="t_2_3-t_1_3" to="t_1_3-p_0_3" fromLane="1" toLane="0"/>
  <connection from="t_2_3-t_1_3" to="t_1_3-t_1_2" fromLane="2" toLane="2"/>
  <connection from="t_2_3-t_1_3" to="t_1_3-t_1_2" fromLane="2" toLane="1"/>
  <connection from="t_2_3-t_1_3" to="t_1_3-t_1_2" fromLane="2" toLane="0"/>
  <connection from="t_1_4-t_1_3" to="t_1_3-t_2_3" fromLane="2" toLane="2"/>
  <connection from="t_1_4-t_1_3" to="t_1_3-t_2_3" fromLane="2" toLane="1"/>
  <connection from="t_1_4-t_1_3" to="t_1_3-t_2_3" fromLane="2" toLane="0"/>
  <connection from="t_1_4-t_1_3" to="t_1_3-p_0_3" fromLane="0" toLane="2"/>
  <connection from="t_1_4-t_1_3" to="t_1_3-p_0_3" fromLane="0" toLane="1"/>
  <connection from="t_1_4-t_1_3" to="t_1_3-p_0_3" fromLane="0" toLane="0"/>
  <connection from="t_1_4-t_1_3" to="t_1_3-t_1_2" fromLane="1" toLane="2"/>
  <connection from="t_1_4-t_1_3" to="t_1_3-t_1_2" fromLane="1" toLane="1"/>
  <connection from="t_1_4-t_1_3" to="t_1_3-t_1_2" fromLane="1" toLane="0"/>
  <connection from="p_0_4-t_1_4" to="t_1_4-t_2_4" fromLane="1" toLane="2"/>
  <connection from="p_0_4-t_1_4" to="t_1_4-t_2_4" fromLane="1" toLane="1"/>
  <connection from="p_0_4-t_1_4" to="t_1_4-t_2_4" fromLane="1" toLane="0"/>
  <connection from="p_0_4-t_1_4" to="t_1_4-t_1_5" fromLane="2" toLane="2"/>
  <connection from="p_0_4-t_1_4" to="t_1_4-t_1_5" fromLane="2" toLane="1"/>
  <connection from="p_0_4-t_1_4" to="t_1_4-t_1_5" fromLane="2" toLane="0"/>
  <connection from="p_0_4-t_1_4" to="t_1_4-t_1_3" fromLane="0" toLane="2"/>
  <connection from="p_0_4-t_1_4" to="t_1_4-t_1_3" fromLane="0" toLane="1"/>
  <connection from="p_0_4-t_1_4" to="t_1_4-t_1_3" fromLane="0" toLane="0"/>
  <connection from="t_1_3-t_1_4" to="t_1_4-t_2_4" fromLane="0" toLane="2"/>
  <connection from="t_1_3-t_1_4" to="t_1_4-t_2_4" fromLane="0" toLane="1"/>
  <connection from="t_1_3-t_1_4" to="t_1_4-t_2_4" fromLane="0" toLane="0"/>
  <connection from="t_1_3-t_1_4" to="t_1_4-t_1_5" fromLane="1" toLane="2"/>
  <connection from="t_1_3-t_1_4" to="t_1_4-t_1_5" fromLane="1" toLane="1"/>
  <connection from="t_1_3-t_1_4" to="t_1_4-t_1_5" fromLane="1" toLane="0"/>
  <connection from="t_1_3-t_1_4" to="t_1_4-p_0_4" fromLane="2" toLane="2"/>
  <connection from="t_1_3-t_1_4" to="t_1_4-p_0_4" fromLane="2" toLane="1"/>
  <connection from="t_1_3-t_1_4" to="t_1_4-p_0_4" fromLane="2" toLane="0"/>
  <connection from="t_2_4-t_1_4" to="t_1_4-t_1_5" fromLane="0" toLane="2"/>
  <connection from="t_2_4-t_1_4" to="t_1_4-t_1_5" fromLane="0" toLane="1"/>
  <connection from="t_2_4-t_1_4" to="t_1_4-t_1_5" fromLane="0" toLane="0"/>
  <connection from="t_2_4-t_1_4" to="t_1_4-p_0_4" fromLane="1" toLane="2"/>
  <connection from="t_2_4-t_1_4" to="t_1_4-p_0_4" fromLane="1" toLane="1"/>
  <connection from="t_2_4-t_1_4" to="t_1_4-p_0_4" fromLane="1" toLane="0"/>
  <connection from="t_2_4-t_1_4" to="t_1_4-t_1_3" fromLane="2" toLane="2"/>
  <connection from="t_2_4-t_1_4" to="t_1_4-t_1_3" fromLane="2" toLane="1"/>
  <connection from="t_2_4-t_1_4" to="t_1_4-t_1_3" fromLane="2" toLane="0"/>
  <connection from="t_1_5-t_1_4" to="t_1_4-t_2_4" fromLane="2" toLane="2"/>
  <connection from="t_1_5-t_1_4" to="t_1_4-t_2_4" fromLane="2" toLane="1"/>
  <connection from="t_1_5-t_1_4" to="t_1_4-t_2_4" fromLane="2" toLane="0"/>
  <connection from="t_1_5-t_1_4" to="t_1_4-p_0_4" fromLane="0" toLane="2"/>
  <connection from="t_1_5-t_1_4" to="t_1_4-p_0_4" fromLane="0" toLane="1"/>
  <connection from="t_1_5-t_1_4" to="t_1_4-p_0_4" fromLane="0" toLane="0"/>
  <connection from="t_1_5-t_1_4" to="t_1_4-t_1_3" fromLane="1" toLane="2"/>
  <connection from="t_1_5-t_1_4" to="t_1_4-t_1_3" fromLane="1" toLane="1"/>
  <connection from="t_1_5-t_1_4" to="t_1_4-t_1_3" fromLane="1" toLane="0"/>
  <connection from="p_0_5-t_1_5" to="t_1_5-t_2_5" fromLane="1" toLane="2"/>
  <connection from="p_0_5-t_1_5" to="t_1_5-t_2_5" fromLane="1" toLane="1"/>
  <connection from="p_0_5-t_1_5" to="t_1_5-t_2_5" fromLane="1" toLane="0"/>
  <connection from="p_0_5-t_1_5" to="t_1_5-t_1_6" fromLane="2" toLane="2"/>
  <connection from="p_0_5-t_1_5" to="t_1_5-t_1_6" fromLane="2" toLane="1"/>
  <connection from="p_0_5-t_1_5" to="t_1_5-t_1_6" fromLane="2" toLane="0"/>
  <connection from="p_0_5-t_1_5" to="t_1_5-t_1_4" fromLane="0" toLane="2"/>
  <connection from="p_0_5-t_1_5" to="t_1_5-t_1_4" fromLane="0" toLane="1"/>
  <connection from="p_0_5-t_1_5" to="t_1_5-t_1_4" fromLane="0" toLane="0"/>
  <connection from="t_1_4-t_1_5" to="t_1_5-t_2_5" fromLane="0" toLane="2"/>
  <connection from="t_1_4-t_1_5" to="t_1_5-t_2_5" fromLane="0" toLane="1"/>
  <connection from="t_1_4-t_1_5" to="t_1_5-t_2_5" fromLane="0" toLane="0"/>
  <connection from="t_1_4-t_1_5" to="t_1_5-t_1_6" fromLane="1" toLane="2"/>
  <connection from="t_1_4-t_1_5" to="t_1_5-t_1_6" fromLane="1" toLane="1"/>
  <connection from="t_1_4-t_1_5" to="t_1_5-t_1_6" fromLane="1" toLane="0"/>
  <connection from="t_1_4-t_1_5" to="t_1_5-p_0_5" fromLane="2" toLane="2"/>
  <connection from="t_1_4-t_1_5" to="t_1_5-p_0_5" fromLane="2" toLane="1"/>
  <connection from="t_1_4-t_1_5" to="t_1_5-p_0_5" fromLane="2" toLane="0"/>
  <connection from="t_2_5-t_1_5" to="t_1_5-t_1_6" fromLane="0" toLane="2"/>
  <connection from="t_2_5-t_1_5" to="t_1_5-t_1_6" fromLane="0" toLane="1"/>
  <connection from="t_2_5-t_1_5" to="t_1_5-t_1_6" fromLane="0" toLane="0"/>
  <connection from="t_2_5-t_1_5" to="t_1_5-p_0_5" fromLane="1" toLane="2"/>
  <connection from="t_2_5-t_1_5" to="t_1_5-p_0_5" fromLane="1" toLane="1"/>
  <connection from="t_2_5-t_1_5" to="t_1_5-p_0_5" fromLane="1" toLane="0"/>
  <connection from="t_2_5-t_1_5" to="t_1_5-t_1_4" fromLane="2" toLane="2"/>
  <connection from="t_2_5-t_1_5" to="t_1_5-t_1_4" fromLane="2" toLane="1"/>
  <connection from="t_2_5-t_1_5" to="t_1_5-t_1_4" fromLane="2" toLane="0"/>
  <connection from="t_1_6-t_1_5" to="t_1_5-t_2_5" fromLane="2" toLane="2"/>
  <connection from="t_1_6-t_1_5" to="t_1_5-t_2_5" fromLane="2" toLane="1"/>
  <connection from="t_1_6-t_1_5" to="t_1_5-t_2_5" fromLane="2" toLane="0"/>
  <connection from="t_1_6-t_1_5" to="t_1_5-p_0_5" fromLane="0" toLane="2"/>
  <connection from="t_1_6-t_1_5" to="t_1_5-p_0_5" fromLane="0" toLane="1"/>
  <connection from="t_1_6-t_1_5" to="t_1_5-p_0_5" fromLane="0" toLane="0"/>
  <connection from="t_1_6-t_1_5" to="t_1_5-t_1_4" fromLane="1" toLane="2"/>
  <connection from="t_1_6-t_1_5" to="t_1_5-t_1_4" fromLane="1" toLane="1"/>
  <connection from="t_1_6-t_1_5" to="t_1_5-t_1_4" fromLane="1" toLane="0"/>
  <connection from="p_0_6-t_1_6" to="t_1_6-t_2_6" fromLane="1" toLane="2"/>
  <connection from="p_0_6-t_1_6" to="t_1_6-t_2_6" fromLane="1" toLane="1"/>
  <connection from="p_0_6-t_1_6" to="t_1_6-t_2_6" fromLane="1" toLane="0"/>
  <connection from="p_0_6-t_1_6" to="t_1_6-t_1_7" fromLane="2" toLane="2"/>
  <connection from="p_0_6-t_1_6" to="t_1_6-t_1_7" fromLane="2" toLane="1"/>
  <connection from="p_0_6-t_1_6" to="t_1_6-t_1_7" fromLane="2" toLane="0"/>
  <connection from="p_0_6-t_1_6" to="t_1_6-t_1_5" fromLane="0" toLane="2"/>
  <connection from="p_0_6-t_1_6" to="t_1_6-t_1_5" fromLane="0" toLane="1"/>
  <connection from="p_0_6-t_1_6" to="t_1_6-t_1_5" fromLane="0" toLane="0"/>
  <connection from="t_1_5-t_1_6" to="t_1_6-t_2_6" fromLane="0" toLane="2"/>
  <connection from="t_1_5-t_1_6" to="t_1_6-t_2_6" fromLane="0" toLane="1"/>
  <connection from="t_1_5-t_1_6" to="t_1_6-t_2_6" fromLane="0" toLane="0"/>
  <connection from="t_1_5-t_1_6" to="t_1_6-t_1_7" fromLane="1" toLane="2"/>
  <connection from="t_1_5-t_1_6" to="t_1_6-t_1_7" fromLane="1" toLane="1"/>
  <connection from="t_1_5-t_1_6" to="t_1_6-t_1_7" fromLane="1" toLane="0"/>
  <connection from="t_1_5-t_1_6" to="t_1_6-p_0_6" fromLane="2" toLane="2"/>
  <connection from="t_1_5-t_1_6" to="t_1_6-p_0_6" fromLane="2" toLane="1"/>
  <connection from="t_1_5-t_1_6" to="t_1_6-p_0_6" fromLane="2" toLane="0"/>
  <connection from="t_2_6-t_1_6" to="t_1_6-t_1_7" fromLane="0" toLane="2"/>
  <connection from="t_2_6-t_1_6" to="t_1_6-t_1_7" fromLane="0" toLane="1"/>
  <connection from="t_2_6-t_1_6" to="t_1_6-t_1_7" fromLane="0" toLane="0"/>
  <connection from="t_2_6-t_1_6" to="t_1_6-p_0_6" fromLane="1" toLane="2"/>
  <connection from="t_2_6-t_1_6" to="t_1_6-p_0_6" fromLane="1" toLane="1"/>
  <connection from="t_2_6-t_1_6" to="t_1_6-p_0_6" fromLane="1" toLane="0"/>
  <connection from="t_2_6-t_1_6" to="t_1_6-t_1_5" fromLane="2" toLane="2"/>
  <connection from="t_2_6-t_1_6" to="t_1_6-t_1_5" fromLane="2" toLane="1"/>
  <connection from="t_2_6-t_1_6" to="t_1_6-t_1_5" fromLane="2" toLane="0"/>
  <connection from="t_1_7-t_1_6" to="t_1_6-t_2_6" fromLane="2" toLane="2"/>
  <connection from="t_1_7-t_1_6" to="t_1_6-t_2_6" fromLane="2" toLane="1"/>
  <connection from="t_1_7-t_1_6" to="t_1_6-t_2_6" fromLane="2" toLane="0"/>
  <connection from="t_1_7-t_1_6" to="t_1_6-p_0_6" fromLane="0" toLane="2"/>
  <connection from="t_1_7-t_1_6" to="t_1_6-p_0_6" fromLane="0" toLane="1"/>
  <connection from="t_1_7-t_1_6" to="t_1_6-p_0_6" fromLane="0" toLane="0"/>
  <connection from="t_1_7-t_1_6" to="t_1_6-t_1_5" fromLane="1" toLane="2"/>
  <connection from="t_1_7-t_1_6" to="t_1_6-t_1_5" fromLane="1" toLane="1"/>
  <connection from="t_1_7-t_1_6" to="t_1_6-t_1_5" fromLane="1" toLane="0"/>
  <connection from="p_0_7-t_1_7" to="t_1_7-t_2_7" fromLane="1" toLane="2"/>
  <connection from="p_0_7-t_1_7" to="t_1_7-t_2_7" fromLane="1" toLane="1"/>
  <connection from="p_0_7-t_1_7" to="t_1_7-t_2_7" fromLane="1" toLane="0"/>
  <connection from="p_0_7-t_1_7" to="t_1_7-t_1_8" fromLane="2" toLane="2"/>
  <connection from="p_0_7-t_1_7" to="t_1_7-t_1_8" fromLane="2" toLane="1"/>
  <connection from="p_0_7-t_1_7" to="t_1_7-t_1_8" fromLane="2" toLane="0"/>
  <connection from="p_0_7-t_1_7" to="t_1_7-t_1_6" fromLane="0" toLane="2"/>
  <connection from="p_0_7-t_1_7" to="t_1_7-t_1_6" fromLane="0" toLane="1"/>
  <connection from="p_0_7-t_1_7" to="t_1_7-t_1_6" fromLane="0" toLane="0"/>
  <connection from="t_1_6-t_1_7" to="t_1_7-t_2_7" fromLane="0" toLane="2"/>
  <connection from="t_1_6-t_1_7" to="t_1_7-t_2_7" fromLane="0" toLane="1"/>
  <connection from="t_1_6-t_1_7" to="t_1_7-t_2_7" fromLane="0" toLane="0"/>
  <connection from="t_1_6-t_1_7" to="t_1_7-t_1_8" fromLane="1" toLane="2"/>
  <connection from="t_1_6-t_1_7" to="t_1_7-t_1_8" fromLane="1" toLane="1"/>
  <connection from="t_1_6-t_1_7" to="t_1_7-t_1_8" fromLane="1" toLane="0"/>
  <connection from="t_1_6-t_1_7" to="t_1_7-p_0_7" fromLane="2" toLane="2"/>
  <connection from="t_1_6-t_1_7" to="t_1_7-p_0_7" fromLane="2" toLane="1"/>
  <connection from="t_1_6-t_1_7" to="t_1_7-p_0_7" fromLane="2" toLane="0"/>
  <connection from="t_2_7-t_1_7" to="t_1_7-t_1_8" fromLane="0" toLane="2"/>
  <connection from="t_2_7-t_1_7" to="t_1_7-t_1_8" fromLane="0" toLane="1"/>
  <connection from="t_2_7-t_1_7" to="t_1_7-t_1_8" fromLane="0" toLane="0"/>
  <connection from="t_2_7-t_1_7" to="t_1_7-p_0_7" fromLane="1" toLane="2"/>
  <connection from="t_2_7-t_1_7" to="t_1_7-p_0_7" fromLane="1" toLane="1"/>
  <connection from="t_2_7-t_1_7" to="t_1_7-p_0_7" fromLane="1" toLane="0"/>
  <connection from="t_2_7-t_1_7" to="t_1_7-t_1_6" fromLane="2" toLane="2"/>
  <connection from="t_2_7-t_1_7" to="t_1_7-t_1_6" fromLane="2" toLane="1"/>
  <connection from="t_2_7-t_1_7" to="t_1_7-t_1_6" fromLane="2" toLane="0"/>
  <connection from="t_1_8-t_1_7" to="t_1_7-t_2_7" fromLane="2" toLane="2"/>
  <connection from="t_1_8-t_1_7" to="t_1_7-t_2_7" fromLane="2" toLane="1"/>
  <connection from="t_1_8-t_1_7" to="t_1_7-t_2_7" fromLane="2" toLane="0"/>
  <connection from="t_1_8-t_1_7" to="t_1_7-p_0_7" fromLane="0" toLane="2"/>
  <connection from="t_1_8-t_1_7" to="t_1_7-p_0_7" fromLane="0" toLane="1"/>
  <connection from="t_1_8-t_1_7" to="t_1_7-p_0_7" fromLane="0" toLane="0"/>
  <connection from="t_1_8-t_1_7" to="t_1_7-t_1_6" fromLane="1" toLane="2"/>
  <connection from="t_1_8-t_1_7" to="t_1_7-t_1_6" fromLane="1" toLane="1"/>
  <connection from="t_1_8-t_1_7" to="t_1_7-t_1_6" fromLane="1" toLane="0"/>
  <connection from="p_0_8-t_1_8" to="t_1_8-t_2_8" fromLane="1" toLane="2"/>
  <connection from="p_0_8-t_1_8" to="t_1_8-t_2_8" fromLane="1" toLane="1"/>
  <connection from="p_0_8-t_1_8" to="t_1_8-t_2_8" fromLane="1" toLane="0"/>
  <connection from="p_0_8-t_1_8" to="t_1_8-t_1_9" fromLane="2" toLane="2"/>
  <connection from="p_0_8-t_1_8" to="t_1_8-t_1_9" fromLane="2" toLane="1"/>
  <connection from="p_0_8-t_1_8" to="t_1_8-t_1_9" fromLane="2" toLane="0"/>
  <connection from="p_0_8-t_1_8" to="t_1_8-t_1_7" fromLane="0" toLane="2"/>
  <connection from="p_0_8-t_1_8" to="t_1_8-t_1_7" fromLane="0" toLane="1"/>
  <connection from="p_0_8-t_1_8" to="t_1_8-t_1_7" fromLane="0" toLane="0"/>
  <connection from="t_1_7-t_1_8" to="t_1_8-t_2_8" fromLane="0" toLane="2"/>
  <connection from="t_1_7-t_1_8" to="t_1_8-t_2_8" fromLane="0" toLane="1"/>
  <connection from="t_1_7-t_1_8" to="t_1_8-t_2_8" fromLane="0" toLane="0"/>
  <connection from="t_1_7-t_1_8" to="t_1_8-t_1_9" fromLane="1" toLane="2"/>
  <connection from="t_1_7-t_1_8" to="t_1_8-t_1_9" fromLane="1" toLane="1"/>
  <connection from="t_1_7-t_1_8" to="t_1_8-t_1_9" fromLane="1" toLane="0"/>
  <connection from="t_1_7-t_1_8" to="t_1_8-p_0_8" fromLane="2" toLane="2"/>
  <connection from="t_1_7-t_1_8" to="t_1_8-p_0_8" fromLane="2" toLane="1"/>
  <connection from="t_1_7-t_1_8" to="t_1_8-p_0_8" fromLane="2" toLane="0"/>
  <connection from="t_2_8-t_1_8" to="t_1_8-t_1_9" fromLane="0" toLane="2"/>
  <connection from="t_2_8-t_1_8" to="t_1_8-t_1_9" fromLane="0" toLane="1"/>
  <connection from="t_2_8-t_1_8" to="t_1_8-t_1_9" fromLane="0" toLane="0"/>
  <connection from="t_2_8-t_1_8" to="t_1_8-p_0_8" fromLane="1" toLane="2"/>
  <connection from="t_2_8-t_1_8" to="t_1_8-p_0_8" fromLane="1" toLane="1"/>
  <connection from="t_2_8-t_1_8" to="t_1_8-p_0_8" fromLane="1" toLane="0"/>
  <connection from="t_2_8-t_1_8" to="t_1_8-t_1_7" fromLane="2" toLane="2"/>
  <connection from="t_2_8-t_1_8" to="t_1_8-t_1_7" fromLane="2" toLane="1"/>
  <connection from="t_2_8-t_1_8" to="t_1_8-t_1_7" fromLane="2" toLane="0"/>
  <connection from="t_1_9-t_1_8" to="t_1_8-t_2_8" fromLane="2" toLane="2"/>
  <connection from="t_1_9-t_1_8" to="t_1_8-t_2_8" fromLane="2" toLane="1"/>
  <connection from="t_1_9-t_1_8" to="t_1_8-t_2_8" fromLane="2" toLane="0"/>
  <connection from="t_1_9-t_1_8" to="t_1_8-p_0_8" fromLane="0" toLane="2"/>
  <connection from="t_1_9-t_1_8" to="t_1_8-p_0_8" fromLane="0" toLane="1"/>
  <connection from="t_1_9-t_1_8" to="t_1_8-p_0_8" fromLane="0" toLane="0"/>
  <connection from="t_1_9-t_1_8" to="t_1_8-t_1_7" fromLane="1" toLane="2"/>
  <connection from="t_1_9-t_1_8" to="t_1_8-t_1_7" fromLane="1" toLane="1"/>
  <connection from="t_1_9-t_1_8" to="t_1_8-t_1_7" fromLane="1" toLane="0"/>
  <connection from="p_0_9-t_1_9" to="t_1_9-t_2_9" fromLane="1" toLane="2"/>
  <connection from="p_0_9-t_1_9" to="t_1_9-t_2_9" fromLane="1" toLane="1"/>
  <connection from="p_0_9-t_1_9" to="t_1_9-t_2_9" fromLane="1" toLane="0"/>
  <connection from="p_0_9-t_1_9" to="t_1_9-t_1_10" fromLane="2" toLane="2"/>
  <connection from="p_0_9-t_1_9" to="t_1_9-t_1_10" fromLane="2" toLane="1"/>
  <connection from="p_0_9-t_1_9" to="t_1_9-t_1_10" fromLane="2" toLane="0"/>
  <connection from="p_0_9-t_1_9" to="t_1_9-t_1_8" fromLane="0" toLane="2"/>
  <connection from="p_0_9-t_1_9" to="t_1_9-t_1_8" fromLane="0" toLane="1"/>
  <connection from="p_0_9-t_1_9" to="t_1_9-t_1_8" fromLane="0" toLane="0"/>
  <connection from="t_1_8-t_1_9" to="t_1_9-t_2_9" fromLane="0" toLane="2"/>
  <connection from="t_1_8-t_1_9" to="t_1_9-t_2_9" fromLane="0" toLane="1"/>
  <connection from="t_1_8-t_1_9" to="t_1_9-t_2_9" fromLane="0" toLane="0"/>
  <connection from="t_1_8-t_1_9" to="t_1_9-t_1_10" fromLane="1" toLane="2"/>
  <connection from="t_1_8-t_1_9" to="t_1_9-t_1_10" fromLane="1" toLane="1"/>
  <connection from="t_1_8-t_1_9" to="t_1_9-t_1_10" fromLane="1" toLane="0"/>
  <connection from="t_1_8-t_1_9" to="t_1_9-p_0_9" fromLane="2" toLane="2"/>
  <connection from="t_1_8-t_1_9" to="t_1_9-p_0_9" fromLane="2" toLane="1"/>
  <connection from="t_1_8-t_1_9" to="t_1_9-p_0_9" fromLane="2" toLane="0"/>
  <connection from="t_2_9-t_1_9" to="t_1_9-t_1_10" fromLane="0" toLane="2"/>
  <connection from="t_2_9-t_1_9" to="t_1_9-t_1_10" fromLane="0" toLane="1"/>
  <connection from="t_2_9-t_1_9" to="t_1_9-t_1_10" fromLane="0" toLane="0"/>
  <connection from="t_2_9-t_1_9" to="t_1_9-p_0_9" fromLane="1" toLane="2"/>
  <connection from="t_2_9-t_1_9" to="t_1_9-p_0_9" fromLane="1" toLane="1"/>
  <connection from="t_2_9-t_1_9" to="t_1_9-p_0_9" fromLane="1" toLane="0"/>
  <connection from="t_2_9-t_1_9" to="t_1_9-t_1_8" fromLane="2" toLane="2"/>
  <connection from="t_2_9-t_1_9" to="t_1_9-t_1_8" fromLane="2" toLane="1"/>
  <connection from="t_2_9-t_1_9" to="t_1_9-t_1_8" fromLane="2" toLane="0"/>
  <connection from="t_1_10-t_1_9" to="t_1_9-t_2_9" fromLane="2" toLane="2"/>
  <connection from="t_1_10-t_1_9" to="t_1_9-t_2_9" fromLane="2" toLane="1"/>
  <connection from="t_1_10-t_1_9" to="t_1_9-t_2_9" fromLane="2" toLane="0"/>
  <connection from="t_1_10-t_1_9" to="t_1_9-p_0_9" fromLane="0" toLane="2"/>
  <connection from="t_1_10-t_1_9" to="t_1_9-p_0_9" fromLane="0" toLane="1"/>
  <connection from="t_1_10-t_1_9" to="t_1_9-p_0_9" fromLane="0" toLane="0"/>
  <connection from="t_1_10-t_1_9" to="t_1_9-t_1_8" fromLane="1" toLane="2"/>
  <connection from="t_1_10-t_1_9" to="t_1_9-t_1_8" fromLane="1" toLane="1"/>
  <connection from="t_1_10-t_1_9" to="t_1_9-t_1_8" fromLane="1" toLane="0"/>
  <connection from="p_0_10-t_1_10" to="t_1_10-t_2_10" fromLane="1" toLane="2"/>
  <connection from="p_0_10-t_1_10" to="t_1_10-t_2_10" fromLane="1" toLane="1"/>
  <connection from="p_0_10-t_1_10" to="t_1_10-t_2_10" fromLane="1" toLane="0"/>
  <connection from="p_0_10-t_1_10" to="t_1_10-t_1_11" fromLane="2" toLane="2"/>
  <connection from="p_0_10-t_1_10" to="t_1_10-t_1_11" fromLane="2" toLane="1"/>
  <connection from="p_0_10-t_1_10" to="t_1_10-t_1_11" fromLane="2" toLane="0"/>
  <connection from="p_0_10-t_1_10" to="t_1_10-t_1_9" fromLane="0" toLane="2"/>
  <connection from="p_0_10-t_1_10" to="t_1_10-t_1_9" fromLane="0" toLane="1"/>
  <connection from="p_0_10-t_1_10" to="t_1_10-t_1_9" fromLane="0" toLane="0"/>
  <connection from="t_1_9-t_1_10" to="t_1_10-t_2_10" fromLane="0" toLane="2"/>
  <connection from="t_1_9-t_1_10" to="t_1_10-t_2_10" fromLane="0" toLane="1"/>
  <connection from="t_1_9-t_1_10" to="t_1_10-t_2_10" fromLane="0" toLane="0"/>
  <connection from="t_1_9-t_1_10" to="t_1_10-t_1_11" fromLane="1" toLane="2"/>
  <connection from="t_1_9-t_1_10" to="t_1_10-t_1_11" fromLane="1" toLane="1"/>
  <connection from="t_1_9-t_1_10" to="t_1_10-t_1_11" fromLane="1" toLane="0"/>
  <connection from="t_1_9-t_1_10" to="t_1_10-p_0_10" fromLane="2" toLane="2"/>
  <connection from="t_1_9-t_1_10" to="t_1_10-p_0_10" fromLane="2" toLane="1"/>
  <connection from="t_1_9-t_1_10" to="t_1_10-p_0_10" fromLane="2" toLane="0"/>
  <connection from="t_2_10-t_1_10" to="t_1_10-t_1_11" fromLane="0" toLane="2"/>
  <connection from="t_2_10-t_1_10" to="t_1_10-t_1_11" fromLane="0" toLane="1"/>
  <connection from="t_2_10-t_1_10" to="t_1_10-t_1_11" fromLane="0" toLane="0"/>
  <connection from="t_2_10-t_1_10" to="t_1_10-p_0_10" fromLane="1" toLane="2"/>
  <connection from="t_2_10-t_1_10" to="t_1_10-p_0_10" fromLane="1" toLane="1"/>
  <connection from="t_2_10-t_1_10" to="t_1_10-p_0_10" fromLane="1" toLane="0"/>
  <connection from="t_2_10-t_1_10" to="t_1_10-t_1_9" fromLane="2" toLane="2"/>
  <connection from="t_2_10-t_1_10" to="t_1_10-t_1_9" fromLane="2" toLane="1"/>
  <connection from="t_2_10-t_1_10" to="t_1_10-t_1_9" fromLane="2" toLane="0"/>
  <connection from="t_1_11-t_1_10" to="t_1_10-t_2_10" fromLane="2" toLane="2"/>
  <connection from="t_1_11-t_1_10" to="t_1_10-t_2_10" fromLane="2" toLane="1"/>
  <connection from="t_1_11-t_1_10" to="t_1_10-t_2_10" fromLane="2" toLane="0"/>
  <connection from="t_1_11-t_1_10" to="t_1_10-p_0_10" fromLane="0" toLane="2"/>
  <connection from="t_1_11-t_1_10" to="t_1_10-p_0_10" fromLane="0" toLane="1"/>
  <connection from="t_1_11-t_1_10" to="t_1_10-p_0_10" fromLane="0" toLane="0"/>
  <connection from="t_1_11-t_1_10" to="t_1_10-t_1_9" fromLane="1" toLane="2"/>
  <connection from="t_1_11-t_1_10" to="t_1_10-t_1_9" fromLane="1" toLane="1"/>
  <connection from="t_1_11-t_1_10" to="t_1_10-t_1_9" fromLane="1" toLane="0"/>
  <connection from="p_0_11-t_1_11" to="t_1_11-t_2_11" fromLane="1" toLane="2"/>
  <connection from="p_0_11-t_1_11" to="t_1_11-t_2_11" fromLane="1" toLane="1"/>
  <connection from="p_0_11-t_1_11" to="t_1_11-t_2_11" fromLane="1" toLane="0"/>
  <connection from="p_0_11-t_1_11" to="t_1_11-t_1_12" fromLane="2" toLane="2"/>
  <connection from="p_0_11-t_1_11" to="t_1_11-t_1_12" fromLane="2" toLane="1"/>
  <connection from="p_0_11-t_1_11" to="t_1_11-t_1_12" fromLane="2" toLane="0"/>
  <connection from="p_0_11-t_1_11" to="t_1_11-t_1_10" fromLane="0" toLane="2"/>
  <connection from="p_0_11-t_1_11" to="t_1_11-t_1_10" fromLane="0" toLane="1"/>
  <connection from="p_0_11-t_1_11" to="t_1_11-t_1_10" fromLane="0" toLane="0"/>
  <connection from="t_1_10-t_1_11" to="t_1_11-t_2_11" fromLane="0" toLane="2"/>
  <connection from="t_1_10-t_1_11" to="t_1_11-t_2_11" fromLane="0" toLane="1"/>
  <connection from="t_1_10-t_1_11" to="t_1_11-t_2_11" fromLane="0" toLane="0"/>
  <connection from="t_1_10-t_1_11" to="t_1_11-t_1_12" fromLane="1" toLane="2"/>
  <connection from="t_1_10-t_1_11" to="t_1_11-t_1_12" fromLane="1" toLane="1"/>
  <connection from="t_1_10-t_1_11" to="t_1_11-t_1_12" fromLane="1" toLane="0"/>
  <connection from="t_1_10-t_1_11" to="t_1_11-p_0_11" fromLane="2" toLane="2"/>
  <connection from="t_1_10-t_1_11" to="t_1_11-p_0_11" fromLane="2" toLane="1"/>
  <connection from="t_1_10-t_1_11" to="t_1_11-p_0_11" fromLane="2" toLane="0"/>
  <connection from="t_2_11-t_1_11" to="t_1_11-t_1_12" fromLane="0" toLane="2"/>
  <connection from="t_2_11-t_1_11" to="t_1_11-t_1_12" fromLane="0" toLane="1"/>
  <connection from="t_2_11-t_1_11" to="t_1_11-t_1_12" fromLane="0" toLane="0"/>
  <connection from="t_2_11-t_1_11" to="t_1_11-p_0_11" fromLane="1" toLane="2"/>
  <connection from="t_2_11-t_1_11" to="t_1_11-p_0_11" fromLane="1" toLane="1"/>
  <connection from="t_2_11-t_1_11" to="t_1_11-p_0_11" fromLane="1" toLane="0"/>
  <connection from="t_2_11-t_1_11" to="t_1_11-t_1_10" fromLane="2" toLane="2"/>
  <connection from="t_2_11-t_1_11" to="t_1_11-t_1_10" fromLane="2" toLane="1"/>
  <connection from="t_2_11-t_1_11" to="t_1_11-t_1_10" fromLane="2" toLane="0"/>
  <connection from="t_1_12-t_1_11" to="t_1_11-t_2_11" fromLane="2" toLane="2"/>
  <connection from="t_1_12-t_1_11" to="t_1_11-t_2_11" fromLane="2" toLane="1"/>
  <connection from="t_1_12-t_1_11" to="t_1_11-t_2_11" fromLane="2" toLane="0"/>
  <connection from="t_1_12-t_1_11" to="t_1_11-p_0_11" fromLane="0" toLane="2"/>