<nodes>
  <node id="p_0_1" x="-350.00" y="0.00" type="priority"/>
  <node id="p_0_2" x="-350.00" y="100.00" type="priority"/>
  <node id="p_0_3" x="-350.00" y="200.00" type="priority"/>
  <node id="p_0_4" x="-350.00" y="300.00" type="priority"/>
  <node id="p_0_5" x="-350.00" y="400.00" type="priority"/>
  <node id="p_0_6" x="-350.00" y="500.00" type="priority"/>
  <node id="p_0_7" x="-350.00" y="600.00" type="priority"/>
  <node id="p_0_8" x="-350.00" y="700.00" type="priority"/>
  <node id="p_0_9" x="-350.00" y="800.00" type="priority"/>
  <node id="p_0_10" x="-350.00" y="900.00" type="priority"/>
  <node id="p_0_11" x="-350.00" y="1000.00" type="priority"/>
  <node id="p_0_12" x="-350.00" y="1100.00" type="priority"/>
  <node id="p_0_13" x="-350.00" y="1200.00" type="priority"/>
  <node id="p_0_14" x="-350.00" y="1300.00" type="priority"/>
  <node id="p_0_15" x="-350.00" y="1400.00" type="priority"/>
  <node id="p_0_16" x="-350.00" y="1500.00" type="priority"/>
  <node id="p_1_0" x="0.00" y="-100.00" type="priority"/>
  <node id="t_1_1" x="0.00" y="0.00" type="traffic_light"/>
  <node id="t_1_2" x="0.00" y="100.00" type="traffic_light"/>
  <node id="t_1_3" x="0.00" y="200.00" type="traffic_light"/>
  <node id="t_1_4" x="0.00" y="300.00" type="traffic_light"/>
  <node id="t_1_5" x="0.00" y="400.00" type="traffic_light"/>
  <node id="t_1_6" x="0.00" y="500.00" type="traffic_light"/>
  <node id="t_1_7" x="0.00" y="600.00" type="traffic_light"/>
  <node id="t_1_8" x="0.00" y="700.00" type="traffic_light"/>
  <node id="t_1_9" x="0.00" y="800.00" type="traffic_light"/>
  <node id="t_1_10" x="0.00" y="900.00" type="traffic_light"/>
  <node id="t_1_11" x="0.00" y="1000.00" type="traffic_light"/>
  <node id="t_1_12" x="0.00" y="1100.00" type="traffic_light"/>
  <node id="t_1_13" x="0.00" y="1200.00" type="traffic_light"/>
  <node id="t_1_14" x="0.00" y="1300.00" type="traffic_light"/>
  <node id="t_1_15" x="0.00" y="1400.00" type="traffic_light"/>
  <node id="t_1_16" x="0.00" y="1500.00" type="traffic_light"/>
  <node id="p_1_17" x="0.00" y="1600.00" type="priority"/>
  <node id="p_2_0" x="350.00" y="-100.00" type="priority"/>
  <node id="t_2_1" x="350.00" y="0.00" type="traffic_light"/>
  <node id="t_2_2" x="350.00" y="100.00" type="traffic_light"/>
  <node id="t_2_3" x="350.00" y="200.00" type="traffic_light"/>
  <node id="t_2_4" x="350.00" y="300.00" type="traffic_light"/>
  <node id="t_2_5" x="350.00" y="400.00" type="traffic_light"/>
  <node id="t_2_6" x="350.00" y="500.00" type="traffic_light"/>
  <node id="t_2_7" x="350.00" y="600.00" type="traffic_light"/>
  <node id="t_2_8" x="350.00" y="700.00" type="traffic_light"/>
  <node id="t_2_9" x="350.00" y="800.00" type="traffic_light"/>
  <node id="t_2_10" x="350.00" y="900.00" type="traffic_light"/>
  <node id="t_2_11" x="350.00" y="1000.00" type="traffic_light"/>
  <node id="t_2_12" x="350.00" y="1100.00" type="traffic_light"/>
  <node id="t_2_13" x="350.00" y="1200.00" type="traffic_light"/>
  <node id="t_2_14" x="350.00" y="1300.00" type="traffic_light"/>
  <node id="t_2_15" x="350.00" y="1400.00" type="traffic_light"/>
  <node id="t_2_16" x="350.00" y="1500.00" type="traffic_light"/>
  <node id="p_2_17" x="350.00" y="1600.00" type="priority"/>
  <node id="p_3_0" x="700.00" y="-100.00" type="priority"/>
  <node id="t_3_1" x="700.00" y="0.00" type="traffic_light"/>
  <node id="t_3_2" x="700.00" y="100.00" type="traffic_light"/>
  <node id="t_3_3" x="700.00" y="200.00" type="traffic_light"/>
  <node id="t_3_4" x="700.00" y="300.00" type="traffic_light"/>
  <node id="t_3_5" x="700.00" y="400.00" type="traffic_light"/>
  <node id="t_3_6" x="700.00" y="500.00" type="traffic_light"/>
  <node id="t_3_7" x="700.00" y="600.00" type="traffic_light"/>
  <node id="t_3_8" x="700.00" y="700.00" type="traffic_light"/>
  <node id="t_3_9" x="700.00" y="800.00" type="traffic_light"/>
  <node id="t_3_10" x="700.00" y="900.00" type="traffic_light"/>
  <node id="t_3_11" x="700.00" y="1000.00" type="traffic_light"/>
  <node id="t_3_12" x="700.00" y="1100.00" type="traffic_light"/>
  <node id="t_3_13" x="700.00" y="1200.00" type="traffic_light"/>
  <node id="t_3_14" x="700.00" y="1300.00" type="traffic_light"/>
  <node id="t_3_15" x="700.00" y="1400.00" type="traffic_light"/>
  <node id="t_3_16" x="700.00" y="1500.00" type="traffic_light"/>
  <node id="p_3_17" x="700.00" y="1600.00" type="priority"/>
  <node id="p_4_1" x="1050.00" y="0.00" type="priority"/>
  <node id="p_4_2" x="1050.00" y="100.00" type="priority"/>
  <node id="p_4_3" x="1050.00" y="200.00" type="priority"/>
  <node id="p_4_4" x="1050.00" y="300.00" type="priority"/>
  <node id="p_4_5" x="1050.00" y="400.00" type="priority"/>
  <node id="p_4_6" x="1050.00" y="500.00" type="priority"/>
  <node id="p_4_7" x="1050.00" y="600.00" type="priority"/>
  <node id="p_4_8" x="1050.00" y="700.00" type="priority"/>
  <node id="p_4_9" x="1050.00" y="800.00" type="priority"/>
  <node id="p_4_10" x="1050.00" y="900.00" type="priority"/>
  <node id="p_4_11" x="1050.00" y="1000.00" type="priority"/>
  <node id="p_4_12" x="1050.00" y="1100.00" type="priority"/>
  <node id="p_4_13" x="1050.00" y="1200.00" type="priority"/>
  <node id="p_4_14" x="1050.00" y="1300.00" type="priority"/>
  <node id="p_4_15" x="1050.00" y="1400.00" type="priority"/>
  <node id="p_4_16" x="1050.00" y="1500.00" type="priority"/>
</nodes>
