<additional>
  <tlLogic id="t_1_1" programID="1" offset="0" type="static">
    <phase duration="5" state="GGGrrrrrrGGGGGGrrrGGGrrrrrrGGGGGGrrr"/>
    <phase duration="2" state="GGGrrrrrrGGGyyyrrrGGGrrrrrrGGGyyyrrr"/>
    <phase duration="5" state="GGGGGGrrrGGGrrrrrrGGGGGGrrrGGGrrrrrr"/>
    <phase duration="2" state="GGGyyyrrrGGGrrrrrrGGGyyyrrrGGGrrrrrr"/>
    <phase duration="5" state="GGGrrrrrrGGGrrrGGGGGGrrrrrrGGGrrrGGG"/>
    <phase duration="2" state="GGGrrrrrrGGGrrryyyGGGrrrrrrGGGrrryyy"/>
    <phase duration="5" state="GGGrrrGGGGGGrrrrrrGGGrrrGGGGGGrrrrrr"/>
    <phase duration="2" state="GGGrrryyyGGGrrrrrrGGGrrryyyGGGrrrrrr"/>
  </tlLogic>
  <tlLogic id="t_1_2" programID="1" offset="0" type="static">
    <phase duration="5" state="GGGrrrrrrGGGGGGrrrGGGrrrrrrGGGGGGrrr"/>
    <phase duration="2" state="GGGrrrrrrGGGyyyrrrGGGrrrrrrGGGyyyrrr"/>
    <phase duration="5" state="GGGGGGrrrGGGrrrrrrGGGGGGrrrGGGrrrrrr"/>
    <phase duration="2" state="GGGyyyrrrGGGrrrrrrGGGyyyrrrGGGrrrrrr"/>
    <phase duration="5" state="GGGrrrrrrGGGrrrGGGGGGrrrrrrGGGrrrGGG"/>
    <phase duration="2" state="GGGrrrrrrGGGrrryyyGGGrrrrrrGGGrrryyy"/>
    <phase duration="5" state="GGGrrrGGGGGGrrrrrrGGGrrrGGGGGGrrrrrr"/>
    <phase duration="2" state="GGGrrryyyGGGrrrrrrGGGrrryyyGGGrrrrrr"/>
  </tlLogic>
  <tlLogic id="t_1_3" programID="1" offset="0" type="static">
    <phase duration="5" state="GGGrrrrrrGGGGGGrrrGGGrrrrrrGGGGGGrrr"/>
    <phase duration="2" state="GGGrrrrrrGGGyyyrrrGGGrrrrrrGGGyyyrrr"/>
    <phase duration="5" state="GGGGGGrrrGGGrrrrrrGGGGGGrrrGGGrrrrrr"/>
    <phase duration="2" state="GGGyyyrrrGGGrrrrrrGGGyyyrrrGGGrrrrrr"/>
    <phase duration="5" state="GGGrrrrrrGGGrrrGGGGGGrrrrrrGGGrrrGGG"/>
    <phase duration="2" state="GGGrrrrrrGGGrrryyyGGGrrrrrrGGGrrryyy"/>
    <phase duration="5" state="GGGrrrGGGGGGrrrrrrGGGrrrGGGGGGrrrrrr"/>
    <phase duration="2" state="GGGrrryyyGGGrrrrrrGGGrrryyyGGGrrrrrr"/>
  </tlLogic>
  <tlLogic id="t_1_4" programID="1" offset="0" type="static">
    <phase duration="5" state="GGGrrrrrrGGGGGGrrrGGGrrrrrrGGGGGGrrr"/>
    <phase duration="2" state="GGGrrrrrrGGGyyyrrrGGGrrrrrrGGGyyyrrr"/>
    <phase duration="5" state="GGGGGGrrrGGGrrrrrrGGGGGGrrrGGGrrrrrr"/>
    <phase duration="2" state="GGGyyyrrrGGGrrrrrrGGGyyyrrrGGGrrrrrr"/>
    <phase duration="5" state="GGGrrrrrrGGGrrrGGGGGGrrrrrrGGGrrrGGG"/>
    <phase duration="2" state="GGGrrrrrrGGGrrryyyGGGrrrrrrGGGrrryyy"/>
    <phase duration="5" state="GGGrrrGGGGGGrrrrrrGGGrrrGGGGGGrrrrrr"/>
    <phase duration="2" state="GGGrrryyyGGGrrrrrrGGGrrryyyGGGrrrrrr"/>
  </tlLogic>
  <tlLogic id="t_1_5" programID="1" offset="0" type="static">
    <phase duration="5" state="GGGrrrrrrGGGGGGrrrGGGrrrrrrGGGGGGrrr"/>
    <phase duration="2" state="GGGrrrrrrGGGyyyrrrGGGrrrrrrGGGyyyrrr"/>
    <phase duration="5" state="GGGGGGrrrGGGrrrrrrGGGGGGrrrGGGrrrrrr"/>
    <phase duration="2" state="GGGyyyrrrGGGrrrrrrGGGyyyrrrGGGrrrrrr"/>
    <phase duration="5" state="GGGrrrrrrGGGrrrGGGGGGrrrrrrGGGrrrGGG"/>
    <phase duration="2" state="GGGrrrrrrGGGrrryyyGGGrrrrrrGGGrrryyy"/>
    <phase duration="5" state="GGGrrrGGGGGGrrrrrrGGGrrrGGGGGGrrrrrr"/>
    <phase duration="2" state="GGGrrryyyGGGrrrrrrGGGrrryyyGGGrrrrrr"/>
  </tlLogic>
  <tlLogic id="t_1_6" programID="1" offset="0" type="static">
    <phase duration="5" state="GGGrrrrrrGGGGGGrrrGGGrrrrrrGGGGGGrrr"/>
    <phase duration="2" state="GGGrrrrrrGGGyyyrrrGGGrrrrrrGGGyyyrrr"/>
    <phase duration="5" state="GGGGGGrrrGGGrrrrrrGGGGGGrrrGGGrrrrrr"/>
    <phase duration="2" state="GGGyyyrrrGGGrrrrrrGGGyyyrrrGGGrrrrrr"/>
    <phase duration="5" state="GGGrrrrrrGGGrrrGGGGGGrrrrrrGGGrrrGGG"/>
    <phase duration="2" state="GGGrrrrrrGGGrrryyyGGGrrrrrrGGGrrryyy"/>
    <phase duration="5" state="GGGrrrGGGGGGrrrrrrGGGrrrGGGGGGrrrrrr"/>
    <phase duration="2" state="GGGrrryyyGGGrrrrrrGGGrrryyyGGGrrrrrr"/>
  </tlLogic>
  <tlLogic id="t_1_7" programID="1" offset="0" type="static">
    <phase duration="5" state="GGGrrrrrrGGGGGGrrrGGGrrrrrrGGGGGGrrr"/>
    <phase duration="2" state="GGGrrrrrrGGGyyyrrrGGGrrrrrrGGGyyyrrr"/>
    <phase duration="5" state="GGGGGGrrrGGGrrrrrrGGGGGGrrrGGGrrrrrr"/>
    <phase duration="2" state="GGGyyyrrrGGGrrrrrrGGGyyyrrrGGGrrrrrr"/>
    <phase duration="5" state="GGGrrrrrrGGGrrrGGGGGGrrrrrrGGGrrrGGG"/>
    <phase duration="2" state="GGGrrrrrrGGGrrryyyGGGrrrrrrGGGrrryyy"/>
    <phase duration="5" state="GGGrrrGGGGGGrrrrrrGGGrrrGGGGGGrrrrrr"/>
    <phase duration="2" state="GGGrrryyyGGGrrrrrrGGGrrryyyGGGrrrrrr"/>
  </tlLogic>
  <tlLogic id="t_1_8" programID="1" offset="0" type="static">
    <phase duration="5" state="GGGrrrrrrGGGGGGrrrGGGrrrrrrGGGGGGrrr"/>
    <phase duration="2" state="GGGrrrrrrGGGyyyrrrGGGrrrrrrGGGyyyrrr"/>
    <phase duration="5" state="GGGGGGrrrGGGrrrrrrGGGGGGrrrGGGrrrrrr"/>
    <phase duration="2" state="GGGyyyrrrGGGrrrrrrGGGyyyrrrGGGrrrrrr"/>
    <phase duration="5" state="GGGrrrrrrGGGrrrGGGGGGrrrrrrGGGrrrGGG"/>
    <phase duration="2" state="GGGrrrrrrGGGrrryyyGGGrrrrrrGGGrrryyy"/>
    <phase duration="5" state="GGGrrrGGGGGGrrrrrrGGGrrrGGGGGGrrrrrr"/>
    <phase duration="2" state="GGGrrryyyGGGrrrrrrGGGrrryyyGGGrrrrrr"/>
  </tlLogic>
  <tlLogic id="t_1_9" programID="1" offset="0" type="static">
    <phase duration="5" state="GGGrrrrrrGGGGGGrrrGGGrrrrrrGGGGGGrrr"/>
    <phase duration="2" state="GGGrrrrrrGGGyyyrrrGGGrrrrrrGGGyyyrrr"/>
    <phase duration="5" state="GGGGGGrrrGGGrrrrrrGGGGGGrrrGGGrrrrrr"/>
    <phase duration="2" state="GGGyyyrrrGGGrrrrrrGGGyyyrrrGGGrrrrrr"/>
    <phase duration="5" state="GGGrrrrrrGGGrrrGGGGGGrrrrrrGGGrrrGGG"/>
    <phase duration="2" state="GGGrrrrrrGGGrrryyyGGGrrrrrrGGGrrryyy"/>
    <phase duration="5" state="GGGrrrGGGGGGrrrrrrGGGrrrGGGGGGrrrrrr"/>
    <phase duration="2" state="GGGrrryyyGGGrrrrrrGGGrrryyyGGGrrrrrr"/>
  </tlLogic>
  <tlLogic id="t_1_10" programID="1" offset="0" type="static">
    <phase duration="5" state="GGGrrrrrrGGGGGGrrrGGGrrrrrrGGGGGGrrr"/>
    <phase duration="2" state="GGGrrrrrrGGGyyyrrrGGGrrrrrrGGGyyyrrr"/>
    <phase duration="5" state="GGGGGGrrrGGGrrrrrrGGGGGGrrrGGGrrrrrr"/>
    <phase duration="2" state="GGGyyyrrrGGGrrrrrrGGGyyyrrrGGGrrrrrr"/>
    <phase duration="5" state="GGGrrrrrrGGGrrrGGGGGGrrrrrrGGGrrrGGG"/>
    <phase duration="2" state="GGGrrrrrrGGGrrryyyGGGrrrrrrGGGrrryyy"/>
    <phase duration="5" state="GGGrrrGGGGGGrrrrrrGGGrrrGGGGGGrrrrrr"/>
    <phase duration="2" state="GGGrrryyyGGGrrrrrrGGGrrryyyGGGrrrrrr"/>
  </tlLogic>
  <tlLogic id="t_1_11" programID="1" offset="0" type="static">
    <phase duration="5" state="GGGrrrrrrGGGGGGrrrGGGrrrrrrGGGGGGrrr"/>
    <phase duration="2" state="GGGrrrrrrGGGyyyrrrGGGrrrrrrGGGyyyrrr"/>
    <phase duration="5" state="GGGGGGrrrGGGrrrrrrGGGGGGrrrGGGrrrrrr"/>
    <phase duration="2" state="GGGyyyrrrGGGrrrrrrGGGyyyrrrGGGrrrrrr"/>
    <phase duration="5" state="GGGrrrrrrGGGrrrGGGGGGrrrrrrGGGrrrGGG"/>
    <phase duration="2" state="GGGrrrrrrGGGrrryyyGGGrrrrrrGGGrrryyy"/>
    <phase duration="5" state="GGGrrrGGGGGGrrrrrrGGGrrrGGGGGGrrrrrr"/>
    <phase duration="2" state="GGGrrryyyGGGrrrrrrGGGrrryyyGGGrrrrrr"/>
  </tlLogic>
  <tlLogic id="t_1_12" programID="1" offset="0" type="static">
    <phase duration="5" state="GGGrrrrrrGGGGGGrrrGGGrrrrrrGGGGGGrrr"/>
    <phase duration="2" state="GGGrrrrrrGGGyyyrrrGGGrrrrrrGGGyyyrrr"/>
    <phase duration="5" state="GGGGGGrrrGGGrrrrrrGGGGGGrrrGGGrrrrrr"/>
    <phase duration="2" state="GGGyyyrrrGGGrrrrrrGGGyyyrrrGGGrrrrrr"/>
    <phase duration="5" state="GGGrrrrrrGGGrrrGGGGGGrrrrrrGGGrrrGGG"/>
    <phase duration="2" state="GGGrrrrrrGGGrrryyyGGGrrrrrrGGGrrryyy"/>
    <phase duration="5" state="GGGrrrGGGGGGrrrrrrGGGrrrGGGGGGrrrrrr"/>
    <phase duration="2" state="GGGrrryyyGGGrrrrrrGGGrrryyyGGGrrrrrr"/>
  </tlLogic>
  <tlLogic id="t_1_13" programID="1" offset="0" type="static">
    <phase duration="5" state="GGGrrrrrrGGGGGGrrrGGGrrrrrrGGGGGGrrr"/>
    <phase duration="2" state="GGGrrrrrrGGGyyyrrrGGGrrrrrrGGGyyyrrr"/>
    <phase duration="5" state="GGGGGGrrrGGGrrrrrrGGGGGGrrrGGGrrrrrr"/>
    <phase duration="2" state="GGGyyyrrrGGGrrrrrrGGGyyyrrrGGGrrrrrr"/>
    <phase duration="5" state="GGGrrrrrrGGGrrrGGGGGGrrrrrrGGGrrrGGG"/>
    <phase duration="2" state="GGGrrrrrrGGGrrryyyGGGrrrrrrGGGrrryyy"/>
    <phase duration="5" state="GGGrrrGGGGGGrrrrrrGGGrrrGGGGGGrrrrrr"/>
    <phase duration="2" state="GGGrrryyyGGGrrrrrrGGGrrryyyGGGrrrrrr"/>
  </tlLogic>
  <tlLogic id="t_1_14" programID="1" offset="0" type="static">
    <phase duration="5" state="GGGrrrrrrGGGGGGrrrGGGrrrrrrGGGGGGrrr"/>
    <phase duration="2" state="GGGrrrrrrGGGyyyrrrGGGrrrrrrGGGyyyrrr"/>
    <phase duration="5" state="GGGGGGrrrGGGrrrrrrGGGGGGrrrGGGrrrrrr"/>
    <phase duration="2" state="GGGyyyrrrGGGrrrrrrGGGyyyrrrGGGrrrrrr"/>
    <phase duration="5" state="GGGrrrrrrGGGrrrGGGGGGrrrrrrGGGrrrGGG"/>
    <phase duration="2" state="GGGrrrrrrGGGrrryyyGGGrrrrrrGGGrrryyy"/>
    <phase duration="5" state="GGGrrrGGGGGGrrrrrrGGGrrrGGGGGGrrrrrr"/>
    <phase duration="2" state="GGGrrryyyGGGrrrrrrGGGrrryyyGGGrrrrrr"/>
  </tlLogic>
  <tlLogic id="t_1_15" programID="1" offset="0" type="static">
    <phase duration="5" state="GGGrrrrrrGGGGGGrrrGGGrrrrrrGGGGGGrrr"/>
    <phase duration="2" state="GGGrrrrrrGGGyyyrrrGGGrrrrrrGGGyyyrrr"/>
    <phase duration="5" state="GGGGGGrrrGGGrrrrrrGGGGGGrrrGGGrrrrrr"/>
    <phase duration="2" state="GGGyyyrrrGGGrrrrrrGGGyyyrrrGGGrrrrrr"/>
    <phase duration="5" state="GGGrrrrrrGGGrrrGGGGGGrrrrrrGGGrrrGGG"/>
    <phase duration="2" state="GGGrrrrrrGGGrrryyyGGGrrrrrrGGGrrryyy"/>
    <phase duration="5" state="GGGrrrGGGGGGrrrrrrGGGrrrGGGGGGrrrrrr"/>
    <phase duration="2" state="GGGrrryyyGGGrrrrrrGGGrrryyyGGGrrrrrr"/>
  </tlLogic>
  <tlLogic id="t_1_16" programID="1" offset="0" type="static">
    <phase duration="5" state="GGGrrrrrrGGGGGGrrrGGGrrrrrrGGGGGGrrr"/>
    <phase duration="2" state="GGGrrrrrrGGGyyyrrrGGGrrrrrrGGGyyyrrr"/>
    <phase duration="5" state="GGGGGGrrrGGGrrrrrrGGGGGGrrrGGGrrrrrr"/>
    <phase duration="2" state="GGGyyyrrrGGGrrrrrrGGGyyyrrrGGGrrrrrr"/>
    <phase duration="5" state="GGGrrrrrrGGGrrrGGGGGGrrrrrrGGGrrrGGG"/>
    <phase duration="2" state="GGGrrrrrrGGGrrryyyGGGrrrrrrGGGrrryyy"/>
    <phase duration="5" state="GGGrrrGGGGGGrrrrrrGGGrrrGGGGGGrrrrrr"/>
    <phase duration="2" state="GGGrrryyyGGGrrrrrrGGGrrryyyGGGrrrrrr"/>
  </tlLogic>
  <tlLogic id="t_2_1" programID="1" offset="0" type="static">
    <phase duration="5" state="GGGrrrrrrGGGGGGrrrGGGrrrrrrGGGGGGrrr"/>
    <phase duration="2" state="GGGrrrrrrGGGyyyrrrGGGrrrrrrGGGyyyrrr"/>
    <phase duration="5" state="GGGGGGrrrGGGrrrrrrGGGGGGrrrGGGrrrrrr"/>
    <phase duration="2" state="GGGyyyrrrGGGrrrrrrGGGyyyrrrGGGrrrrrr"/>
    <phase duration="5" state="GGGrrrrrrGGGrrrGGGGGGrrrrrrGGGrrrGGG"/>
    <phase duration="2" state="GGGrrrrrrGGGrrryyyGGGrrrrrrGGGrrryyy"/>
    <phase duration="5" state="GGGrrrGGGGGGrrrrrrGGGrrrGGGGGGrrrrrr"/>
    <phase duration="2" state="GGGrrryyyGGGrrrrrrGGGrrryyyGGGrrrrrr"/>
  </tlLogic>
  <tlLogic id="t_2_2" programID="1" offset="0" type="static">
    <phase duration="5" state="GGGrrrrrrGGGGGGrrrGGGrrrrrrGGGGGGrrr"/>
    <phase duration="2" state="GGGrrrrrrGGGyyyrrrGGGrrrrrrGGGyyyrrr"/>
    <phase duration="5" state="GGGGGGrrrGGGrrrrrrGGGGGGrrrGGGrrrrrr"/>
    <phase duration="2" state="GGGyyyrrrGGGrrrrrrGGGyyyrrrGGGrrrrrr"/>
    <phase duration="5" state="GGGrrrrrrGGGrrrGGGGGGrrrrrrGGGrrrGGG"/>
    <phase duration="2" state="GGGrrrrrrGGGrrryyyGGGrrrrrrGGGrrryyy"/>
    <phase duration="5" state="GGGrrrGGGGGGrrrrrrGGGrrrGGGGGGrrrrrr"/>
    <phase duration="2" state="GGGrrryyyGGGrrrrrrGGGrrryyyGGGrrrrrr"/>
  </tlLogic>
  <tlLogic id="t_2_3" programID="1" offset="0" type="static">
    <phase duration="5" state="GGGrrrrrrGGGGGGrrrGGGrrrrrrGGGGGGrrr"/>
    <phase duration="2" state="GGGrrrrrrGGGyyyrrrGGGrrrrrrGGGyyyrrr"/>
    <phase duration="5" state="GGGGGGrrrGGGrrrrrrGGGGGGrrrGGGrrrrrr"/>
    <phase duration="2" state="GGGyyyrrrGGGrrrrrrGGGyyyrrrGGGrrrrrr"/>
    <phase duration="5" state="GGGrrrrrrGGGrrrGGGGGGrrrrrrGGGrrrGGG"/>
    <phase duration="2" state="GGGrrrrrrGGGrrryyyGGGrrrrrrGGGrrryyy"/>
    <phase duration="5" state="GGGrrrGGGGGGrrrrrrGGGrrrGGGGGGrrrrrr"/>
    <phase duration="2" state="GGGrrryyyGGGrrrrrrGGGrrryyyGGGrrrrrr"/>
  </tlLogic>
  <tlLogic id="t_2_4" programID="1" offset="0" type="static">
    <phase duration="5" state="GGGrrrrrrGGGGGGrrrGGGrrrrrrGGGGGGrrr"/>
    <phase duration="2" state="GGGrrrrrrGGGyyyrrrGGGrrrrrrGGGyyyrrr"/>
    <phase duration="5" state="GGGGGGrrrGGGrrrrrrGGGGGGrrrGGGrrrrrr"/>
    <phase duration="2" state="GGGyyyrrrGGGrrrrrrGGGyyyrrrGGGrrrrrr"/>
    <phase duration="5" state="GGGrrrrrrGGGrrrGGGGGGrrrrrrGGGrrrGGG"/>
    <phase duration="2" state="GGGrrrrrrGGGrrryyyGGGrrrrrrGGGrrryyy"/>
    <phase duration="5" state="GGGrrrGGGGGGrrrrrrGGGrrrGGGGGGrrrrrr"/>
    <phase duration="2" state="GGGrrryyyGGGrrrrrrGGGrrryyyGGGrrrrrr"/>
  </tlLogic>
  <tlLogic id="t_2_5" programID="1" offset="0" type="static">
    <phase duration="5" state="GGGrrrrrrGGGGGGrrrGGGrrrrrrGGGGGGrrr"/>
    <phase duration="2" state="GGGrrrrrrGGGyyyrrrGGGrrrrrrGGGyyyrrr"/>
    <phase duration="5" state="GGGGGGrrrGGGrrrrrrGGGGGGrrrGGGrrrrrr"/>
    <phase duration="2" state="GGGyyyrrrGGGrrrrrrGGGyyyrrrGGGrrrrrr"/>
    <phase duration="5" state="GGGrrrrrrGGGrrrGGGGGGrrrrrrGGGrrrGGG"/>
    <phase duration="2" state="GGGrrrrrrGGGrrryyyGGGrrrrrrGGGrrryyy"/>
    <phase duration="5" state="GGGrrrGGGGGGrrrrrrGGGrrrGGGGGGrrrrrr"/>
    <phase duration="2" state="GGGrrryyyGGGrrrrrrGGGrrryyyGGGrrrrrr"/>
  </tlLogic>
  <tlLogic id="t_2_6" programID="1" offset="0" type="static">
    <phase duration="5" state="GGGrrrrrrGGGGGGrrrGGGrrrrrrGGGGGGrrr"/>
    <phase duration="2" state="GGGrrrrrrGGGyyyrrrGGGrrrrrrGGGyyyrrr"/>
    <phase duration="5" state="GGGGGGrrrGGGrrrrrrGGGGGGrrrGGGrrrrrr"/>
    <phase duration="2" state="GGGyyyrrrGGGrrrrrrGGGyyyrrrGGGrrrrrr"/>
    <phase duration="5" state="GGGrrrrrrGGGrrrGGGGGGrrrrrrGGGrrrGGG"/>
    <phase duration="2" state="GGGrrrrrrGGGrrryyyGGGrrrrrrGGGrrryyy"/>
    <phase duration="5" state="GGGrrrGGGGGGrrrrrrGGGrrrGGGGGGrrrrrr"/>
    <phase duration="2" state="GGGrrryyyGGGrrrrrrGGGrrryyyGGGrrrrrr"/>
  </tlLogic>
  <tlLogic id="t_2_7" programID="1" offset="0" type="static">
    <phase duration="5" state="GGGrrrrrrGGGGGGrrrGGGrrrrrrGGGGGGrrr"/>
    <phase duration="2" state="GGGrrrrrrGGGyyyrrrGGGrrrrrrGGGyyyrrr"/>
    <phase duration="5" state="GGGGGGrrrGGGrrrrrrGGGGGGrrrGGGrrrrrr"/>
    <phase duration="2" state="GGGyyyrrrGGGrrrrrrGGGyyyrrrGGGrrrrrr"/>
    <phase duration="5" state="GGGrrrrrrGGGrrrGGGGGGrrrrrrGGGrrrGGG"/>
    <phase duration="2" state="GGGrrrrrrGGGrrryyyGGGrrrrrrGGGrrryyy"/>
    <phase duration="5" state="GGGrrrGGGGGGrrrrrrGGGrrrGGGGGGrrrrrr"/>
    <phase duration="2" state="GGGrrryyyGGGrrrrrrGGGrrryyyGGGrrrrrr"/>
  </tlLogic>
  <tlLogic id="t_2_8" programID="1" offset="0" type="static">
    <phase duration="5" state="GGGrrrrrrGGGGGGrrrGGGrrrrrrGGGGGGrrr"/>
    <phase duration="2" state="GGGrrrrrrGGGyyyrrrGGGrrrrrrGGGyyyrrr"/>
    <phase duration="5" state="GGGGGGrrrGGGrrrrrrGGGGGGrrrGGGrrrrrr"/>
    <phase duration="2" state="GGGyyyrrrGGGrrrrrrGGGyyyrrrGGGrrrrrr"/>
    <phase duration="5" state="GGGrrrrrrGGGrrrGGGGGGrrrrrrGGGrrrGGG"/>
    <phase duration="2" state="GGGrrrrrrGGGrrryyyGGGrrrrrrGGGrrryyy"/>
    <phase duration="5" state="GGGrrrGGGGGGrrrrrrGGGrrrGGGGGGrrrrrr"/>
    <phase duration="2" state="GGGrrryyyGGGrrrrrrGGGrrryyyGGGrrrrrr"/>
  </tlLogic>
  <tlLogic id="t_2_9" programID="1" offset="0" type="static">
    <phase duration="5" state="GGGrrrrrrGGGGGGrrrGGGrrrrrrGGGGGGrrr"/>
    <phase duration="2" state="GGGrrrrrrGGGyyyrrrGGGrrrrrrGGGyyyrrr"/>
    <phase duration="5" state="GGGGGGrrrGGGrrrrrrGGGGGGrrrGGGrrrrrr"/>
    <phase duration="2" state="GGGyyyrrrGGGrrrrrrGGGyyyrrrGGGrrrrrr"/>
    <phase duration="5" state="GGGrrrrrrGGGrrrGGGGGGrrrrrrGGGrrrGGG"/>
    <phase duration="2" state="GGGrrrrrrGGGrrryyyGGGrrrrrrGGGrrryyy"/>
    <phase duration="5" state="GGGrrrGGGGGGrrrrrrGGGrrrGGGGGGrrrrrr"/>
    <phase duration="2" state="GGGrrryyyGGGrrrrrrGGGrrryyyGGGrrrrrr"/>
  </tlLogic>
  <tlLogic id="t_2_10" programID="1" offset="0" type="static">
    <phase duration="5" state="GGGrrrrrrGGGGGGrrrGGGrrrrrrGGGGGGrrr"/>
    <phase duration="2" state="GGGrrrrrrGGGyyyrrrGGGrrrrrrGGGyyyrrr"/>
    <phase duration="5" state="GGGGGGrrrGGGrrrrrrGGGGGGrrrGGGrrrrrr"/>
    <phase duration="2" state="GGGyyyrrrGGGrrrrrrGGGyyyrrrGGGrrrrrr"/>
    <phase duration="5" state="GGGrrrrrrGGGrrrGGGGGGrrrrrrGGGrrrGGG"/>
    <phase duration="2" state="GGGrrrrrrGGGrrryyyGGGrrrrrrGGGrrryyy"/>
    <phase duration="5" state="GGGrrrGGGGGGrrrrrrGGGrrrGGGGGGrrrrrr"/>
    <phase duration="2" state="GGGrrryyyGGGrrrrrrGGGrrryyyGGGrrrrrr"/>
  </tlLogic>
  <tlLogic id="t_2_11" programID="1" offset="0" type="static">
    <phase duration="5" state="GGGrrrrrrGGGGGGrrrGGGrrrrrrGGGGGGrrr"/>
    <phase duration="2" state="GGGrrrrrrGGGyyyrrrGGGrrrrrrGGGyyyrrr"/>
    <phase duration="5" state="GGGGGGrrrGGGrrrrrrGGGGGGrrrGGGrrrrrr"/>
    <phase duration="2" state="GGGyyyrrrGGGrrrrrrGGGyyyrrrGGGrrrrrr"/>
    <phase duration="5" state="GGGrrrrrrGGGrrrGGGGGGrrrrrrGGGrrrGGG"/>
    <phase duration="2" state="GGGrrrrrrGGGrrryyyGGGrrrrrrGGGrrryyy"/>
    <phase duration="5" state="GGGrrrGGGGGGrrrrrrGGGrrrGGGGGGrrrrrr"/>
    <phase duration="2" state="GGGrrryyyGGGrrrrrrGGGrrryyyGGGrrrrrr"/>
  </tlLogic>
  <tlLogic id="t_2_12" programID="1" offset="0" type="static">
    <phase duration="5" state="GGGrrrrrrGGGGGGrrrGGGrrrrrrGGGGGGrrr"/>
    <phase duration="2" state="GGGrrrrrrGGGyyyrrrGGGrrrrrrGGGyyyrrr"/>
    <phase duration="5" state="GGGGGGrrrGGGrrrrrrGGGGGGrrrGGGrrrrrr"/>
    <phase duration="2" state="GGGyyyrrrGGGrrrrrrGGGyyyrrrGGGrrrrrr"/>
    <phase duration="5" state="GGGrrrrrrGGGrrrGGGGGGrrrrrrGGGrrrGGG"/>
    <phase duration="2" state="GGGrrrrrrGGGrrryyyGGGrrrrrrGGGrrryyy"/>
    <phase duration="5" state="GGGrrrGGGGGGrrrrrrGGGrrrGGGGGGrrrrrr"/>
    <phase duration="2" state="GGGrrryyyGGGrrrrrrGGGrrryyyGGGrrrrrr"/>
  </tlLogic>
  <tlLogic id="t_2_13" programID="1" offset="0" type="static">
    <phase duration="5" state="GGGrrrrrrGGGGGGrrrGGGrrrrrrGGGGGGrrr"/>
    <phase duration="2" state="GGGrrrrrrGGGyyyrrrGGGrrrrrrGGGyyyrrr"/>
    <phase duration="5" state="GGGGGGrrrGGGrrrrrrGGGGGGrrrGGGrrrrrr"/>
    <phase duration="2" state="GGGyyyrrrGGGrrrrrrGGGyyyrrrGGGrrrrrr"/>
    <phase duration="5" state="GGGrrrrrrGGGrrrGGGGGGrrrrrrGGGrrrGGG"/>
    <phase duration="2" state="GGGrrrrrrGGGrrryyyGGGrrrrrrGGGrrryyy"/>
    <phase duration="5" state="GGGrrrGGGGGGrrrrrrGGGrrrGGGGGGrrrrrr"/>
    <phase duration="2" state="GGGrrryyyGGGrrrrrrGGGrrryyyGGGrrrrrr"/>
  </tlLogic>
  <tlLogic id="t_2_14" programID="1" offset="0" type="static">
    <phase duration="5" state="GGGrrrrrrGGGGGGrrrGGGrrrrrrGGGGGGrrr"/>
    <phase duration="2" state="GGGrrrrrrGGGyyyrrrGGGrrrrrrGGGyyyrrr"/>
    <phase duration="5" state="GGGGGGrrrGGGrrrrrrGGGGGGrrrGGGrrrrrr"/>
    <phase duration="2" state="GGGyyyrrrGGGrrrrrrGGGyyyrrrGGGrrrrrr"/>
    <phase duration="5" state="GGGrrrrrrGGGrrrGGGGGGrrrrrrGGGrrrGGG"/>
    <phase duration="2" state="GGGrrrrrrGGGrrryyyGGGrrrrrrGGGrrryyy"/>
    <phase duration="5" state="GGGrrrGGGGGGrrrrrrGGGrrrGGGGGGrrrrrr"/>
    <phase duration="2" state="GGGrrryyyGGGrrrrrrGGGrrryyyGGGrrrrrr"/>
  </tlLogic>
  <tlLogic id="t_2_15" programID="1" offset="0" type="static">
    <phase duration="5" state="GGGrrrrrrGGGGGGrrrGGGrrrrrrGGGGGGrrr"/>
    <phase duration="2" state="GGGrrrrrrGGGyyyrrrGGGrrrrrrGGGyyyrrr"/>
    <phase duration="5" state="GGGGGGrrrGGGrrrrrrGGGGGGrrrGGGrrrrrr"/>
    <phase duration="2" state="GGGyyyrrrGGGrrrrrrGGGyyyrrrGGGrrrrrr"/>
    <phase duration="5" state="GGGrrrrrrGGGrrrGGGGGGrrrrrrGGGrrrGGG"/>
    <phase duration="2" state="GGGrrrrrrGGGrrryyyGGGrrrrrrGGGrrryyy"/>
    <phase duration="5" state="GGGrrrGGGGGGrrrrrrGGGrrrGGGGGGrrrrrr"/>
    <phase duration="2" state="GGGrrryyyGGGrrrrrrGGGrrryyyGGGrrrrrr"/>
  </tlLogic>
  <tlLogic id="t_2_16" programID="1" offset="0" type="static">
    <phase duration="5" state="GGGrrrrrrGGGGGGrrrGGGrrrrrrGGGGGGrrr"/>
    <phase duration="2" state="GGGrrrrrrGGGyyyrrrGGGrrrrrrGGGyyyrrr"/>
    <phase duration="5" state="GGGGGGrrrGGGrrrrrrGGGGGGrrrGGGrrrrrr"/>
    <phase duration="2" state="GGGyyyrrrGGGrrrrrrGGGyyyrrrGGGrrrrrr"/>
    <phase duration="5" state="GGGrrrrrrGGGrrrGGGGGGrrrrrrGGGrrrGGG"/>
    <phase duration="2" state="GGGrrrrrrGGGrrryyyGGGrrrrrrGGGrrryyy"/>
    <phase duration="5" state="GGGrrrGGGGGGrrrrrrGGGrrrGGGGGGrrrrrr"/>
    <phase duration="2" state="GGGrrryyyGGGrrrrrrGGGrrryyyGGGrrrrrr"/>
  </tlLogic>
  <tlLogic id="t_3_1" programID="1" offset="0" type="static">
    <phase duration="5" state="GGGrrrrrrGGGGGGrrrGGGrrrrrrGGGGGGrrr"/>
    <phase duration="2" state="GGGrrrrrrGGGyyyrrrGGGrrrrrrGGGyyyrrr"/>
    <phase duration="5" state="GGGGGGrrrGGGrrrrrrGGGGGGrrrGGGrrrrrr"/>
    <phase duration="2" state="GGGyyyrrrGGGrrrrrrGGGyyyrrrGGGrrrrrr"/>
    <phase duration="5" state="GGGrrrrrrGGGrrrGGGGGGrrrrrrGGGrrrGGG"/>
    <phase duration="2" state="GGGrrrrrrGGGrrryyyGGGrrrrrrGGGrrryyy"/>
    <phase duration="5" state="GGGrrrGGGGGGrrrrrrGGGrrrGGGGGGrrrrrr"/>
    <phase duration="2" state="GGGrrryyyGGGrrrrrrGGGrrryyyGGGrrrrrr"/>
  </tlLogic>
  <tlLogic id="t_3_2" programID="1" offset="0" type="static">
    <phase duration="5" state="GGGrrrrrrGGGGGGrrrGGGrrrrrrGGGGGGrrr"/>
    <phase duration="2" state="GGGrrrrrrGGGyyyrrrGGGrrrrrrGGGyyyrrr"/>
    <phase duration="5" state="GGGGGGrrrGGGrrrrrrGGGGGGrrrGGGrrrrrr"/>
    <phase duration="2" state="GGGyyyrrrGGGrrrrrrGGGyyyrrrGGGrrrrrr"/>
    <phase duration="5" state="GGGrrrrrrGGGrrrGGGGGGrrrrrrGGGrrrGGG"/>
    <phase duration="2" state="GGGrrrrrrGGGrrryyyGGGrrrrrrGGGrrryyy"/>
    <phase duration="5" state="GGGrrrGGGGGGrrrrrrGGGrrrGGGGGGrrrrrr"/>
    <phase duration="2" state="GGGrrryyyGGGrrrrrrGGGrrryyyGGGrrrrrr"/>
  </tlLogic>
  <tlLogic id="t_3_3" programID="1" offset="0" type="static">
    <phase duration="5" state="GGGrrrrrrGGGGGGrrrGGGrrrrrrGGGGGGrrr"/>
    <phase duration="2" state="GGGrrrrrrGGGyyyrrrGGGrrrrrrGGGyyyrrr"/>
    <phase duration="5" state="GGGGGGrrrGGGrrrrrrGGGGGGrrrGGGrrrrrr"/>
    <phase duration="2" state="GGGyyyrrrGGGrrrrrrGGGyyyrrrGGGrrrrrr"/>
    <phase duration="5" state="GGGrrrrrrGGGrrrGGGGGGrrrrrrGGGrrrGGG"/>
    <phase duration="2" state="GGGrrrrrrGGGrrryyyGGGrrrrrrGGGrrryyy"/>
    <phase duration="5" state="GGGrrrGGGGGGrrrrrrGGGrrrGGGGGGrrrrrr"/>
    <phase duration="2" state="GGGrrryyyGGGrrrrrrGGGrrryyyGGGrrrrrr"/>
  </tlLogic>
  <tlLogic id="t_3_4" programID="1" offset="0" type="static">
    <phase duration="5" state="GGGrrrrrrGGGGGGrrrGGGrrrrrrGGGGGGrrr"/>
    <phase duration="2" state="GGGrrrrrrGGGyyyrrrGGGrrrrrrGGGyyyrrr"/>
    <phase duration="5" state="GGGGGGrrrGGGrrrrrrGGGGGGrrrGGGrrrrrr"/>
    <phase duration="2" state="GGGyyyrrrGGGrrrrrrGGGyyyrrrGGGrrrrrr"/>
    <phase duration="5" state="GGGrrrrrrGGGrrrGGGGGGrrrrrrGGGrrrGGG"/>
    <phase duration="2" state="GGGrrrrrrGGGrrryyyGGGrrrrrrGGGrrryyy"/>
    <phase duration="5" state="GGGrrrGGGGGGrrrrrrGGGrrrGGGGGGrrrrrr"/>
    <phase duration="2" state="GGGrrryyyGGGrrrrrrGGGrrryyyGGGrrrrrr"/>
  </tlLogic>
  <tlLogic id="t_3_5" programID="1" offset="0" type="static">
    <phase duration="5" state="GGGrrrrrrGGGGGGrrrGGGrrrrrrGGGGGGrrr"/>
    <phase duration="2" state="GGGrrrrrrGGGyyyrrrGGGrrrrrrGGGyyyrrr"/>
    <phase duration="5" state="GGGGGGrrrGGGrrrrrrGGGGGGrrrGGGrrrrrr"/>
    <phase duration="2" state="GGGyyyrrrGGGrrrrrrGGGyyyrrrGGGrrrrrr"/>
    <phase duration="5" state="GGGrrrrrrGGGrrrGGGGGGrrrrrrGGGrrrGGG"/>
    <phase duration="2" state="GGGrrrrrrGGGrrryyyGGGrrrrrrGGGrrryyy"/>
    <phase duration="5" state="GGGrrrGGGGGGrrrrrrGGGrrrGGGGGGrrrrrr"/>
    <phase duration="2" state="GGGrrryyyGGGrrrrrrGGGrrryyyGGGrrrrrr"/>
  </tlLogic>
  <tlLogic id="t_3_6" programID="1" offset="0" type="static">
    <phase duration="5" state="GGGrrrrrrGGGGGGrrrGGGrrrrrrGGGGGGrrr"/>
    <phase duration="2" state="GGGrrrrrrGGGyyyrrrGGGrrrrrrGGGyyyrrr"/>
    <phase duration="5" state="GGGGGGrrrGGGrrrrrrGGGGGGrrrGGGrrrrrr"/>
    <phase duration="2" state="GGGyyyrrrGGGrrrrrrGGGyyyrrrGGGrrrrrr"/>
    <phase duration="5" state="GGGrrrrrrGGGrrrGGGGGGrrrrrrGGGrrrGGG"/>
    <phase duration="2" state="GGGrrrrrrGGGrrryyyGGGrrrrrrGGGrrryyy"/>
    <phase duration="5" state="GGGrrrGGGGGGrrrrrrGGGrrrGGGGGGrrrrrr"/>
    <phase duration="2" state="GGGrrryyyGGGrrrrrrGGGrrryyyGGGrrrrrr"/>
  </tlLogic>
  <tlLogic id="t_3_7" programID="1" offset="0" type="static">
    <phase duration="5" state="GGGrrrrrrGGGGGGrrrGGGrrrrrrGGGGGGrrr"/>
    <phase duration="2" state="GGGrrrrrrGGGyyyrrrGGGrrrrrrGGGyyyrrr"/>
    <phase duration="5" state="GGGGGGrrrGGGrrrrrrGGGGGGrrrGGGrrrrrr"/>
    <phase duration="2" state="GGGyyyrrrGGGrrrrrrGGGyyyrrrGGGrrrrrr"/>
    <phase duration="5" state="GGGrrrrrrGGGrrrGGGGGGrrrrrrGGGrrrGGG"/>
    <phase duration="2" state="GGGrrrrrrGGGrrryyyGGGrrrrrrGGGrrryyy"/>
    <phase duration="5" state="GGGrrrGGGGGGrrrrrrGGGrrrGGGGGGrrrrrr"/>
    <phase duration="2" state="GGGrrryyyGGGrrrrrrGGGrrryyyGGGrrrrrr"/>
  </tlLogic>
  <tlLogic id="t_3_8" programID="1" offset="0" type="static">
    <phase duration="5" state="GGGrrrrrrGGGGGGrrrGGGrrrrrrGGGGGGrrr"/>
    <phase duration="2" state="GGGrrrrrrGGGyyyrrrGGGrrrrrrGGGyyyrrr"/>
    <phase duration="5" state="GGGGGGrrrGGGrrrrrrGGGGGGrrrGGGrrrrrr"/>
    <phase duration="2" state="GGGyyyrrrGGGrrrrrrGGGyyyrrrGGGrrrrrr"/>
    <phase duration="5" state="GGGrrrrrrGGGrrrGGGGGGrrrrrrGGGrrrGGG"/>
    <phase duration="2" state="GGGrrrrrrGGGrrryyyGGGrrrrrrGGGrrryyy"/>
    <phase duration="5" state="GGGrrrGGGGGGrrrrrrGGGrrrGGGGGGrrrrrr"/>
    <phase duration="2" state="GGGrrryyyGGGrrrrrrGGGrrryyyGGGrrrrrr"/>
  </tlLogic>
  <tlLogic id="t_3_9" programID="1" offset="0" type="static">
    <phase duration="5" state="GGGrrrrrrGGGGGGrrrGGGrrrrrrGGGGGGrrr"/>
    <phase duration="2" state="GGGrrrrrrGGGyyyrrrGGGrrrrrrGGGyyyrrr"/>
    <phase duration="5" state="GGGGGGrrrGGGrrrrrrGGGGGGrrrGGGrrrrrr"/>
    <phase duration="2" state="GGGyyyrrrGGGrrrrrrGGGyyyrrrGGGrrrrrr"/>
    <phase duration="5" state="GGGrrrrrrGGGrrrGGGGGGrrrrrrGGGrrrGGG"/>
    <phase duration="2" state="GGGrrrrrrGGGrrryyyGGGrrrrrrGGGrrryyy"/>
    <phase duration="5" state="GGGrrrGGGGGGrrrrrrGGGrrrGGGGGGrrrrrr"/>
    <phase duration="2" state="GGGrrryyyGGGrrrrrrGGGrrryyyGGGrrrrrr"/>
  </tlLogic>
  <tlLogic id="t_3_10" programID="1" offset="0" type="static">
    <phase duration="5" state="GGGrrrrrrGGGGGGrrrGGGrrrrrrGGGGGGrrr"/>
    <phase duration="2" state="GGGrrrrrrGGGyyyrrrGGGrrrrrrGGGyyyrrr"/>
    <phase duration="5" state="GGGGGGrrrGGGrrrrrrGGGGGGrrrGGGrrrrrr"/>
    <phase duration="2" state="GGGyyyrrrGGGrrrrrrGGGyyyrrrGGGrrrrrr"/>
    <phase duration="5" state="GGGrrrrrrGGGrrrGGGGGGrrrrrrGGGrrrGGG"/>
    <phase duration="2" state="GGGrrrrrrGGGrrryyyGGGrrrrrrGGGrrryyy"/>
    <phase duration="5" state="GGGrrrGGGGGGrrrrrrGGGrrrGGGGGGrrrrrr"/>
    <phase duration="2" state="GGGrrryyyGGGrrrrrrGGGrrryyyGGGrrrrrr"/>
  </tlLogic>
  <tlLogic id="t_3_11" programID="1" offset="0" type="static">
    <phase duration="5" state="GGGrrrrrrGGGGGGrrrGGGrrrrrrGGGGGGrrr"/>
    <phase duration="2" state="GGGrrrrrrGGGyyyrrrGGGrrrrrrGGGyyyrrr"/>
    <phase duration="5" state="GGGGGGrrrGGGrrrrrrGGGGGGrrrGGGrrrrrr"/>
    <phase duration="2" state="GGGyyyrrrGGGrrrrrrGGGyyyrrrGGGrrrrrr"/>
    <phase duration="5" state="GGGrrrrrrGGGrrrGGGGGGrrrrrrGGGrrrGGG"/>
    <phase duration="2" state="GGGrrrrrrGGGrrryyyGGGrrrrrrGGGrrryyy"/>
    <phase duration="5" state="GGGrrrGGGGGGrrrrrrGGGrrrGGGGGGrrrrrr"/>
    <phase duration="2" state="GGGrrryyyGGGrrrrrrGGGrrryyyGGGrrrrrr"/>
  </tlLogic>
  <tlLogic id="t_3_12" programID="1" offset="0" type="static">
    <phase duration="5" state="GGGrrrrrrGGGGGGrrrGGGrrrrrrGGGGGGrrr"/>
    <phase duration="2" state="GGGrrrrrrGGGyyyrrrGGGrrrrrrGGGyyyrrr"/>
    <phase duration="5" state="GGGGGGrrrGGGrrrrrrGGGGGGrrrGGGrrrrrr"/>
    <phase duration="2" state="GGGyyyrrrGGGrrrrrrGGGyyyrrrGGGrrrrrr"/>
    <phase duration="5" state="GGGrrrrrrGGGrrrGGGGGGrrrrrrGGGrrrGGG"/>
    <phase duration="2" state="GGGrrrrrrGGGrrryyyGGGrrrrrrGGGrrryyy"/>
    <phase duration="5" state="GGGrrrGGGGGGrrrrrrGGGrrrGGGGGGrrrrrr"/>
    <phase duration="2" state="GGGrrryyyGGGrrrrrrGGGrrryyyGGGrrrrrr"/>
  </tlLogic>
  <tlLogic id="t_3_13" programID="1" offset="0" type="static">
    <phase duration="5" state="GGGrrrrrrGGGGGGrrrGGGrrrrrrGGGGGGrrr"/>
    <phase duration="2" state="GGGrrrrrrGGGyyyrrrGGGrrrrrrGGGyyyrrr"/>
    <phase duration="5" state="GGGGGGrrrGGGrrrrrrGGGGGGrrrGGGrrrrrr"/>
    <phase duration="2" state="GGGyyyrrrGGGrrrrrrGGGyyyrrrGGGrrrrrr"/>
    <phase duration="5" state="GGGrrrrrrGGGrrrGGGGGGrrrrrrGGGrrrGGG"/>
    <phase duration="2" state="GGGrrrrrrGGGrrryyyGGGrrrrrrGGGrrryyy"/>
    <phase duration="5" state="GGGrrrGGGGGGrrrrrrGGGrrrGGGGGGrrrrrr"/>
    <phase duration="2" state="GGGrrryyyGGGrrrrrrGGGrrryyyGGGrrrrrr"/>
  </tlLogic>
  <tlLogic id="t_3_14" programID="1" offset="0" type="static">
    <phase duration="5" state="GGGrrrrrrGGGGGGrrrGGGrrrrrrGGGGGGrrr"/>
    <phase duration="2" state="GGGrrrrrrGGGyyyrrrGGGrrrrrrGGGyyyrrr"/>
    <phase duration="5" state="GGGGGGrrrGGGrrrrrrGGGGGGrrrGGGrrrrrr"/>
    <phase duration="2" state="GGGyyyrrrGGGrrrrrrGGGyyyrrrGGGrrrrrr"/>
    <phase duration="5" state="GGGrrrrrrGGGrrrGGGGGGrrrrrrGGGrrrGGG"/>
    <phase duration="2" state="GGGrrrrrrGGGrrryyyGGGrrrrrrGGGrrryyy"/>
    <phase duration="5" state="GGGrrrGGGGGGrrrrrrGGGrrrGGGGGGrrrrrr"/>
    <phase duration="2" state="GGGrrryyyGGGrrrrrrGGGrrryyyGGGrrrrrr"/>
  </tlLogic>
  <tlLogic id="t_3_15" programID="1" offset="0" type="static">
    <phase duration="5" state="GGGrrrrrrGGGGGGrrrGGGrrrrrrGGGGGGrrr"/>
    <phase duration="2" state="GGGrrrrrrGGGyyyrrrGGGrrrrrrGGGyyyrrr"/>
    <phase duration="5" state="GGGGGGrrrGGGrrrrrrGGGGGGrrrGGGrrrrrr"/>
    <phase duration="2" state="GGGyyyrrrGGGrrrrrrGGGyyyrrrGGGrrrrrr"/>