<edges>
  <edge id="p_0_1-t_1_1" from="p_0_1" to="t_1_1" numLanes="3" speed="20"/>
  <edge id="p_0_2-t_1_2" from="p_0_2" to="t_1_2" numLanes="3" speed="20"/>
  <edge id="p_0_3-t_1_3" from="p_0_3" to="t_1_3" numLanes="3" speed="20"/>
  <edge id="p_0_4-t_1_4" from="p_0_4" to="t_1_4" numLanes="3" speed="20"/>
  <edge id="p_0_5-t_1_5" from="p_0_5" to="t_1_5" numLanes="3" speed="20"/>
  <edge id="p_0_6-t_1_6" from="p_0_6" to="t_1_6" numLanes="3" speed="20"/>
  <edge id="p_0_7-t_1_7" from="p_0_7" to="t_1_7" numLanes="3" speed="20"/>
  <edge id="p_0_8-t_1_8" from="p_0_8" to="t_1_8" numLanes="3" speed="20"/>
  <edge id="p_0_9-t_1_9" from="p_0_9" to="t_1_9" numLanes="3" speed="20"/>
  <edge id="p_0_10-t_1_10" from="p_0_10" to="t_1_10" numLanes="3" speed="20"/>
  <edge id="p_0_11-t_1_11" from="p_0_11" to="t_1_11" numLanes="3" speed="20"/>
  <edge id="p_0_12-t_1_12" from="p_0_12" to="t_1_12" numLanes="3" speed="20"/>
  <edge id="p_0_13-t_1_13" from="p_0_13" to="t_1_13" numLanes="3" speed="20"/>
  <edge id="p_0_14-t_1_14" from="p_0_14" to="t_1_14" numLanes="3" speed="20"/>
  <edge id="p_0_15-t_1_15" from="p_0_15" to="t_1_15" numLanes="3" speed="20"/>
  <edge id="p_0_16-t_1_16" from="p_0_16" to="t_1_16" numLanes="3" speed="20"/>
  <edge id="p_1_0-t_1_1" from="p_1_0" to="t_1_1" numLanes="3" speed="20"/>
  <edge id="t_1_1-t_2_1" from="t_1_1" to="t_2_1" numLanes="3" speed="20"/>
  <edge id="t_1_1-t_1_2" from="t_1_1" to="t_1_2" numLanes="3" speed="20"/>
  <edge id="t_1_1-p_0_1" from="t_1_1" to="p_0_1" numLanes="3" speed="20"/>
  <edge id="t_1_1-p_1_0" from="t_1_1" to="p_1_0" numLanes="3" speed="20"/>
  <edge id="t_1_2-t_2_2" from="t_1_2" to="t_2_2" numLanes="3" speed="20"/>
  <edge id="t_1_2-t_1_3" from="t_1_2" to="t_1_3" numLanes="3" speed="20"/>
  <edge id="t_1_2-p_0_2" from="t_1_2" to="p_0_2" numLanes="3" speed="20"/>
  <edge id="t_1_2-t_1_1" from="t_1_2" to="t_1_1" numLanes="3" speed="20"/>
  <edge id="t_1_3-t_2_3" from="t_1_3" to="t_2_3" numLanes="3" speed="20"/>
  <edge id="t_1_3-t_1_4" from="t_1_3" to="t_1_4" numLanes="3" speed="20"/>
  <edge id="t_1_3-p_0_3" from="t_1_3" to="p_0_3" numLanes="3" speed="20"/>
  <edge id="t_1_3-t_1_2" from="t_1_3" to="t_1_2" numLanes="3" speed="20"/>
  <edge id="t_1_4-t_2_4" from="t_1_4" to="t_2_4" numLanes="3" speed="20"/>
  <edge id="t_1_4-t_1_5" from="t_1_4" to="t_1_5" numLanes="3" speed="20"/>
  <edge id="t_1_4-p_0_4" from="t_1_4" to="p_0_4" numLanes="3" speed="20"/>
  <edge id="t_1_4-t_1_3" from="t_1_4" to="t_1_3" numLanes="3" speed="20"/>
  <edge id="t_1_5-t_2_5" from="t_1_5" to="t_2_5" numLanes="3" speed="20"/>
  <edge id="t_1_5-t_1_6" from="t_1_5" to="t_1_6" numLanes="3" speed="20"/>
  <edge id="t_1_5-p_0_5" from="t_1_5" to="p_0_5" numLanes="3" speed="20"/>
  <edge id="t_1_5-t_1_4" from="t_1_5" to="t_1_4" numLanes="3" speed="20"/>
  <edge id="t_1_6-t_2_6" from="t_1_6" to="t_2_6" numLanes="3" speed="20"/>
  <edge id="t_1_6-t_1_7" from="t_1_6" to="t_1_7" numLanes="3" speed="20"/>
  <edge id="t_1_6-p_0_6" from="t_1_6" to="p_0_6" numLanes="3" speed="20"/>
  <edge id="t_1_6-t_1_5" from="t_1_6" to="t_1_5" numLanes="3" speed="20"/>
  <edge id="t_1_7-t_2_7" from="t_1_7" to="t_2_7" numLanes="3" speed="20"/>
  <edge id="t_1_7-t_1_8" from="t_1_7" to="t_1_8" numLanes="3" speed="20"/>
  <edge id="t_1_7-p_0_7" from="t_1_7" to="p_0_7" numLanes="3" speed="20"/>
  <edge id="t_1_7-t_1_6" from="t_1_7" to="t_1_6" numLanes="3" speed="20"/>
  <edge id="t_1_8-t_2_8" from="t_1_8" to="t_2_8" numLanes="3" speed="20"/>
  <edge id="t_1_8-t_1_9" from="t_1_8" to="t_1_9" numLanes="3" speed="20"/>
  <edge id="t_1_8-p_0_8" from="t_1_8" to="p_0_8" numLanes="3" speed="20"/>
  <edge id="t_1_8-t_1_7" from="t_1_8" to="t_1_7" numLanes="3" speed="20"/>
  <edge id="t_1_9-t_2_9" from="t_1_9" to="t_2_9" numLanes="3" speed="20"/>
  <edge id="t_1_9-t_1_10" from="t_1_9" to="t_1_10" numLanes="3" speed="20"/>
  <edge id="t_1_9-p_0_9" from="t_1_9" to="p_0_9" numLanes="3" speed="20"/>
  <edge id="t_1_9-t_1_8" from="t_1_9" to="t_1_8" numLanes="3" speed="20"/>
  <edge id="t_1_10-t_2_10" from="t_1_10" to="t_2_10" numLanes="3" speed="20"/>
  <edge id="t_1_10-t_1_11" from="t_1_10" to="t_1_11" numLanes="3" speed="20"/>
  <edge id="t_1_10-p_0_10" from="t_1_10" to="p_0_10" numLanes="3" speed="20"/>
  <edge id="t_1_10-t_1_9" from="t_1_10" to="t_1_9" numLanes="3" speed="20"/>
  <edge id="t_1_11-t_2_11" from="t_1_11" to="t_2_11" numLanes="3" speed="20"/>
  <edge id="t_1_11-t_1_12" from="t_1_11" to="t_1_12" numLanes="3" speed="20"/>
  <edge id="t_1_11-p_0_11" from="t_1_11" to="p_0_11" numLanes="3" speed="20"/>
  <edge id="t_1_11-t_1_10" from="t_1_11" to="t_1_10" numLanes="3" speed="20"/>
  <edge id="t_1_12-t_2_12" from="t_1_12" to="t_2_12" numLanes="3" speed="20"/>
  <edge id="t_1_12-t_1_13" from="t_1_12" to="t_1_13" numLanes="3" speed="20"/>
  <edge id="t_1_12-p_0_12" from="t_1_12" to="p_0_12" numLanes="3" speed="20"/>
  <edge id="t_1_12-t_1_11" from="t_1_12" to="t_1_11" numLanes="3" speed="20"/>
  <edge id="t_1_13-t_2_13" from="t_1_13" to="t_2_13" numLanes="3" speed="20"/>
  <edge id="t_1_13-t_1_14" from="t_1_13" to="t_1_14" numLanes="3" speed="20"/>
  <edge id="t_1_13-p_0_13" from="t_1_13" to="p_0_13" numLanes="3" speed="20"/>
  <edge id="t_1_13-t_1_12" from="t_1_13" to="t_1_12" numLanes="3" speed="20"/>
  <edge id="t_1_14-t_2_14" from="t_1_14" to="t_2_14" numLanes="3" speed="20"/>
  <edge id="t_1_14-t_1_15" from="t_1_14" to="t_1_15" numLanes="3" speed="20"/>
  <edge id="t_1_14-p_0_14" from="t_1_14" to="p_0_14" numLanes="3" speed="20"/>
  <edge id="t_1_14-t_1_13" from="t_1_14" to="t_1_13" numLanes="3" speed="20"/>
  <edge id="t_1_15-t_2_15" from="t_1_15" to="t_2_15" numLanes="3" speed="20"/>
  <edge id="t_1_15-t_1_16" from="t_1_15" to="t_1_16" numLanes="3" speed="20"/>
  <edge id="t_1_15-p_0_15" from="t_1_15" to="p_0_15" numLanes="3" speed="20"/>
  <edge id="t_1_15-t_1_14" from="t_1_15" to="t_1_14" numLanes="3" speed="20"/>
  <edge id="t_1_16-t_2_16" from="t_1_16" to="t_2_16" numLanes="3" speed="20"/>
  <edge id="t_1_16-p_1_17" from="t_1_16" to="p_1_17" numLanes="3" speed="20"/>
  <edge id="t_1_16-p_0_16" from="t_1_16" to="p_0_16" numLanes="3" speed="20"/>
  <edge id="t_1_16-t_1_15" from="t_1_16" to="t_1_15" numLanes="3" speed="20"/>
  <edge id="p_1_17-t_1_16" from="p_1_17" to="t_1_16" numLanes="3" speed="20"/>
  <edge id="p_2_0-t_2_1" from="p_2_0" to="t_2_1" numLanes="3" speed="20"/>
  <edge id="t_2_1-t_3_1" from="t_2_1" to="t_3_1" numLanes="3" speed="20"/>
  <edge id="t_2_1-t_2_2" from="t_2_1" to="t_2_2" numLanes="3" speed="20"/>
  <edge id="t_2_1-t_1_1" from="t_2_1" to="t_1_1" numLanes="3" speed="20"/>
  <edge id="t_2_1-p_2_0" from="t_2_1" to="p_2_0" numLanes="3" speed="20"/>
  <edge id="t_2_2-t_3_2" from="t_2_2" to="t_3_2" numLanes="3" speed="20"/>
  <edge id="t_2_2-t_2_3" from="t_2_2" to="t_2_3" numLanes="3" speed="20"/>
  <edge id="t_2_2-t_1_2" from="t_2_2" to="t_1_2" numLanes="3" speed="20"/>
  <edge id="t_2_2-t_2_1" from="t_2_2" to="t_2_1" numLanes="3" speed="20"/>
  <edge id="t_2_3-t_3_3" from="t_2_3" to="t_3_3" numLanes="3" speed="20"/>
  <edge id="t_2_3-t_2_4" from="t_2_3" to="t_2_4" numLanes="3" speed="20"/>
  <edge id="t_2_3-t_1_3" from="t_2_3" to="t_1_3" numLanes="3" speed="20"/>
  <edge id="t_2_3-t_2_2" from="t_2_3" to="t_2_2" numLanes="3" speed="20"/>
  <edge id="t_2_4-t_3_4" from="t_2_4" to="t_3_4" numLanes="3" speed="20"/>
  <edge id="t_2_4-t_2_5" from="t_2_4" to="t_2_5" numLanes="3" speed="20"/>
  <edge id="t_2_4-t_1_4" from="t_2_4" to="t_1_4" numLanes="3" speed="20"/>
  <edge id="t_2_4-t_2_3" from="t_2_4" to="t_2_3" numLanes="3" speed="20"/>
  <edge id="t_2_5-t_3_5" from="t_2_5" to="t_3_5" numLanes="3" speed="20"/>
  <edge id="t_2_5-t_2_6" from="t_2_5" to="t_2_6" numLanes="3" speed="20"/>
  <edge id="t_2_5-t_1_5" from="t_2_5" to="t_1_5" numLanes="3" speed="20"/>
  <edge id="t_2_5-t_2_4" from="t_2_5" to="t_2_4" numLanes="3" speed="20"/>
  <edge id="t_2_6-t_3_6" from="t_2_6" to="t_3_6" numLanes="3" speed="20"/>
  <edge id="t_2_6-t_2_7" from="t_2_6" to="t_2_7" numLanes="3" speed="20"/>
  <edge id="t_2_6-t_1_6" from="t_2_6" to="t_1_6" numLanes="3" speed="20"/>
  <edge id="t_2_6-t_2_5" from="t_2_6" to="t_2_5" numLanes="3" speed="20"/>
  <edge id="t_2_7-t_3_7" from="t_2_7" to="t_3_7" numLanes="3" speed="20"/>
  <edge id="t_2_7-t_2_8" from="t_2_7" to="t_2_8" numLanes="3" speed="20"/>
  <edge id="t_2_7-t_1_7" from="t_2_7" to="t_1_7" numLanes="3" speed="20"/>
  <edge id="t_2_7-t_2_6" from="t_2_7" to="t_2_6" numLanes="3" speed="20"/>
  <edge id="t_2_8-t_3_8" from="t_2_8" to="t_3_8" numLanes="3" speed="20"/>
  <edge id="t_2_8-t_2_9" from="t_2_8" to="t_2_9" numLanes="3" speed="20"/>
  <edge id="t_2_8-t_1_8" from="t_2_8" to="t_1_8" numLanes="3" speed="20"/>
  <edge id="t_2_8-t_2_7" from="t_2_8" to="t_2_7" numLanes="3" speed="20"/>
  <edge id="t_2_9-t_3_9" from="t_2_9" to="t_3_9" numLanes="3" speed="20"/>
  <edge id="t_2_9-t_2_10" from="t_2_9" to="t_2_10" numLanes="3" speed="20"/>
  <edge id="t_2_9-t_1_9" from="t_2_9" to="t_1_9" numLanes="3" speed="20"/>
  <edge id="t_2_9-t_2_8" from="t_2_9" to="t_2_8" numLanes="3" speed="20"/>
  <edge id="t_2_10-t_3_10" from="t_2_10" to="t_3_10" numLanes="3" speed="20"/>
  <edge id="t_2_10-t_2_11" from="t_2_10" to="t_2_11" numLanes="3" speed="20"/>
  <edge id="t_2_10-t_1_10" from="t_2_10" to="t_1_10" numLanes="3" speed="20"/>
  <edge id="t_2_10-t_2_9" from="t_2_10" to="t_2_9" numLanes="3" speed="20"/>
  <edge id="t_2_11-t_3_11" from="t_2_11" to="t_3_11" numLanes="3" speed="20"/>
  <edge id="t_2_11-t_2_12" from="t_2_11" to="t_2_12" numLanes="3" speed="20"/>
  <edge id="t_2_11-t_1_11" from="t_2_11" to="t_1_11" numLanes="3" speed="20"/>
  <edge id="t_2_11-t_2_10" from="t_2_11" to="t_2_10" numLanes="3" speed="20"/>
  <edge id="t_2_12-t_3_12" from="t_2_12" to="t_3_12" numLanes="3" speed="20"/>
  <edge id="t_2_12-t_2_13" from="t_2_12" to="t_2_13" numLanes="3" speed="20"/>
  <edge id="t_2_12-t_1_12" from="t_2_12" to="t_1_12" numLanes="3" speed="20"/>
  <edge id="t_2_12-t_2_11" from="t_2_12" to="t_2_11" numLanes="3" speed="20"/>
  <edge id="t_2_13-t_3_13" from="t_2_13" to="t_3_13" numLanes="3" speed="20"/>
  <edge id="t_2_13-t_2_14" from="t_2_13" to="t_2_14" numLanes="3" speed="20"/>
  <edge id="t_2_13-t_1_13" from="t_2_13" to="t_1_13" numLanes="3" speed="20"/>
  <edge id="t_2_13-t_2_12" from="t_2_13" to="t_2_12" numLanes="3" speed="20"/>
  <edge id="t_2_14-t_3_14" from="t_2_14" to="t_3_14" numLanes="3" speed="20"/>
  <edge id="t_2_14-t_2_15" from="t_2_14" to="t_2_15" numLanes="3" speed="20"/>
  <edge id="t_2_14-t_1_14" from="t_2_14" to="t_1_14" numLanes="3" speed="20"/>
  <edge id="t_2_14-t_2_13" from="t_2_14" to="t_2_13" numLanes="3" speed="20"/>
  <edge id="t_2_15-t_3_15" from="t_2_15" to="t_3_15" numLanes="3" speed="20"/>
  <edge id="t_2_15-t_2_16" from="t_2_15" to="t_2_16" numLanes="3" speed="20"/>
  <edge id="t_2_15-t_1_15" from="t_2_15" to="t_1_15" numLanes="3" speed="20"/>
  <edge id="t_2_15-t_2_14" from="t_2_15" to="t_2_14" numLanes="3" speed="20"/>
  <edge id="t_2_16-t_3_16" from="t_2_16" to="t_3_16" numLanes="3" speed="20"/>
  <edge id="t_2_16-p_2_17" from="t_2_16" to="p_2_17" numLanes="3" speed="20"/>
  <edge id="t_2_16-t_1_16" from="t_2_16" to="t_1_16" numLanes="3" speed="20"/>
  <edge id="t_2_16-t_2_15" from="t_2_16" to="t_2_15" numLanes="3" speed="20"/>
  <edge id="p_2_17-t_2_16" from="p_2_17" to="t_2_16" numLanes="3" speed="20"/>
  <edge id="p_3_0-t_3_1" from="p_3_0" to="t_3_1" numLanes="3" speed="20"/>
  <edge id="t_3_1-p_4_1" from="t_3_1" to="p_4_1" numLanes="3" speed="20"/>
  <edge id="t_3_1-t_3_2" from="t_3_1" to="t_3_2" numLanes="3" speed="20"/>
  <edge id="t_3_1-t_2_1" from="t_3_1" to="t_2_1" numLanes="3" speed="20"/>
  <edge id="t_3_1-p_3_0" from="t_3_1" to="p_3_0" numLanes="3" speed="20"/>
  <edge id="t_3_2-p_4_2" from="t_3_2" to="p_4_2" numLanes="3" speed="20"/>
  <edge id="t_3_2-t_3_3" from="t_3_2" to="t_3_3" numLanes="3" speed="20"/>
  <edge id="t_3_2-t_2_2" from="t_3_2" to="t_2_2" numLanes="3" speed="20"/>
  <edge id="t_3_2-t_3_1" from="t_3_2" to="t_3_1" numLanes="3" speed="20"/>
  <edge id="t_3_3-p_4_3" from="t_3_3" to="p_4_3" numLanes="3" speed="20"/>
  <edge id="t_3_3-t_3_4" from="t_3_3" to="t_3_4" numLanes="3" speed="20"/>
  <edge id="t_3_3-t_2_3" from="t_3_3" to="t_2_3" numLanes="3" speed="20"/>
  <edge id="t_3_3-t_3_2" from="t_3_3" to="t_3_2" numLanes="3" speed="20"/>
  <edge id="t_3_4-p_4_4" from="t_3_4" to="p_4_4" numLanes="3" speed="20"/>
  <edge id="t_3_4-t_3_5" from="t_3_4" to="t_3_5" numLanes="3" speed="20"/>
  <edge id="t_3_4-t_2_4" from="t_3_4" to="t_2_4" numLanes="3" speed="20"/>
  <edge id="t_3_4-t_3_3" from="t_3_4" to="t_3_3" numLanes="3" speed="20"/>
  <edge id="t_3_5-p_4_5" from="t_3_5" to="p_4_5" numLanes="3" speed="20"/>
  <edge id="t_3_5-t_3_6" from="t_3_5" to="t_3_6" numLanes="3" speed="20"/>
  <edge id="t_3_5-t_2_5" from="t_3_5" to="t_2_5" numLanes="3" speed="20"/>
  <edge id="t_3_5-t_3_4" from="t_3_5" to="t_3_4" numLanes="3" speed="20"/>
  <edge id="t_3_6-p_4_6" from="t_3_6" to="p_4_6" numLanes="3" speed="20"/>
  <edge id="t_3_6-t_3_7" from="t_3_6" to="t_3_7" numLanes="3" speed="20"/>
  <edge id="t_3_6-t_2_6" from="t_3_6" to="t_2_6" numLanes="3" speed="20"/>
  <edge id="t_3_6-t_3_5" from="t_3_6" to="t_3_5" numLanes="3" speed="20"/>
  <edge id="t_3_7-p_4_7" from="t_3_7" to="p_4_7" numLanes="3" speed="20"/>
  <edge id="t_3_7-t_3_8" from="t_3_7" to="t_3_8" numLanes="3" speed="20"/>
  <edge id="t_3_7-t_2_7" from="t_3_7" to="t_2_7" numLanes="3" speed="20"/>
  <edge id="t_3_7-t_3_6" from="t_3_7" to="t_3_6" numLanes="3" speed="20"/>
  <edge id="t_3_8-p_4_8" from="t_3_8" to="p_4_8" numLanes="3" speed="20"/>
  <edge id="t_3_8-t_3_9" from="t_3_8" to="t_3_9" numLanes="3" speed="20"/>
  <edge id="t_3_8-t_2_8" from="t_3_8" to="t_2_8" numLanes="3" speed="20"/>
  <edge id="t_3_8-t_3_7" from="t_3_8" to="t_3_7" numLanes="3" speed="20"/>
  <edge id="t_3_9-p_4_9" from="t_3_9" to="p_4_9" numLanes="3" speed="20"/>
  <edge id="t_3_9-t_3_10" from="t_3_9" to="t_3_10" numLanes="3" speed="20"/>
  <edge id="t_3_9-t_2_9" from="t_3_9" to="t_2_9" numLanes="3" speed="20"/>
  <edge id="t_3_9-t_3_8" from="t_3_9" to="t_3_8" numLanes="3" speed="20"/>
  <edge id="t_3_10-p_4_10" from="t_3_10" to="p_4_10" numLanes="3" speed="20"/>
  <edge id="t_3_10-t_3_11" from="t_3_10" to="t_3_11" numLanes="3" speed="20"/>
  <edge id="t_3_10-t_2_10" from="t_3_10" to="t_2_10" numLanes="3" speed="20"/>
  <edge id="t_3_10-t_3_9" from="t_3_10" to="t_3_9" numLanes="3" speed="20"/>
  <edge id="t_3_11-p_4_11" from="t_3_11" to="p_4_11" numLanes="3" speed="20"/>
  <edge id="t_3_11-t_3_12" from="t_3_11" to="t_3_12" numLanes="3" speed="20"/>
  <edge id="t_3_11-t_2_11" from="t_3_11" to="t_2_11" numLanes="3" speed="20"/>
  <edge id="t_3_11-t_3_10" from="t_3_11" to="t_3_10" numLanes="3" speed="20"/>
  <edge id="t_3_12-p_4_12" from="t_3_12" to="p_4_12" numLanes="3" speed="20"/>
  <edge id="t_3_12-t_3_13" from="t_3_12" to="t_3_13" numLanes="3" speed="20"/>
  <edge id="t_3_12-t_2_12" from="t_3_12" to="t_2_12" numLanes="3" speed="20"/>
  <edge id="t_3_12-t_3_11" from="t_3_12" to="t_3_11" numLanes="3" speed="20"/>
  <edge id="t_3_13-p_4_13" from="t_3_13" to="p_4_13" numLanes="3" speed="20"/>
  <edge id="t_3_13-t_3_14" from="t_3_13" to="t_3_14" numLanes="3" speed="20"/>
  <edge id="t_3_13-t_2_13" from="t_3_13" to="t_2_13" numLanes="3" speed="20"/>
  <edge id="t_3_13-t_3_12" from="t_3_13" to="t_3_12" numLanes="3" speed="20"/>
  <edge id="t_3_14-p_4_14" from="t_3_14" to="p_4_14" numLanes="3" speed="20"/>
  <edge id="t_3_14-t_3_15" from="t_3_14" to="t_3_15" numLanes="3" speed="20"/>
  <edge id="t_3_14-t_2_14" from="t_3_14" to="t_2_14" numLanes="3" speed="20"/>
  <edge id="t_3_14-t_3_13" from="t_3_14" to="t_3_13" numLanes="3" speed="20"/>
  <edge id="t_3_15-p_4_15" from="t_3_15" to="p_4_15" numLanes="3" speed="20"/>
  <edge id="t_3_15-t_3_16" from="t_3_15" to="t_3_16" numLanes="3" speed="20"/>
  <edge id="t_3_15-t_2_15" from="t_3_15" to="t_2_15" numLanes="3" speed="20"/>
  <edge id="t_3_15-t_3_14" from="t_3_15" to="t_3_14" numLanes="3" speed="20"/>
  <edge id="t_3_16-p_4_16" from="t_3_16" to="p_4_16" numLanes="3" speed="20"/>
  <edge id="t_3_16-p_3_17" from="t_3_16" to="p_3_17" numLanes="3" speed="20"/>
  <edge id="t_3_16-t_2_16" from="t_3_16" to="t_2_16" numLanes="3" speed="20"/>
  <edge id="t_3_16-t_3_15" from="t_3_16" to="t_3_15" numLanes="3" speed="20"/>
  <edge id="p_3_17-t_3_16" from="p_3_17" to="t_3_16" numLanes="3" speed="20"/>
  <edge id="p_4_1-t_3_1" from="p_4_1" to="t_3_1" numLanes="3" speed="20"/>
  <edge id="p_4_2-t_3_2" from="p_4_2" to="t_3_2" numLanes="3" speed="20"/>
  <edge id="p_4_3-t_3_3" from="p_4_3" to="t_3_3" numLanes="3" speed="20"/>
  <edge id="p_4_4-t_3_4" from="p_4_4" to="t_3_4" numLanes="3" speed="20"/>
  <edge id="p_4_5-t_3_5" from="p_4_5" to="t_3_5" numLanes="3" speed="20"/>
  <edge id="p_4_6-t_3_6" from="p_4_6" to="t_3_6" numLanes="3" speed="20"/>
  <edge id="p_4_7-t_3_7" from="p_4_7" to="t_3_7" numLanes="3" speed="20"/>
  <edge id="p_4_8-t_3_8" from="p_4_8" to="t_3_8" numLanes="3" speed="20"/>
  <edge id="p_4_9-t_3_9" from="p_4_9" to="t_3_9" numLanes="3" speed="20"/>
  <edge id="p_4_10-t_3_10" from="p_4_10" to="t_3_10" numLanes="3" speed="20"/>
  <edge id="p_4_11-t_3_11" from="p_4_11" to="t_3_11" numLanes="3" speed="20"/>
  <edge id="p_4_12-t_3_12" from="p_4_12" to="t_3_12" numLanes="3" speed="20"/>
  <edge id="p_4_13-t_3_13" from="p_4_13" to="t_3_13" numLanes="3" speed="20"/>
  <edge id="p_4_14-t_3_14" from="p_4_14" to="t_3_14" numLanes="3" speed="20"/>
  <edge id="p_4_15-t_3_15" from="p_4_15" to="t_3_15" numLanes="3" speed="20"/>
  <edge id="p_4_16-t_3_16" from="p_4_16" to="t_3_16" numLanes="3" speed="20"/>
</edges>
