<routes>
  <vType id="type1" length="5" maxSpeed="11" accel="5" minGap="2.5" decel="10"/>
  <vType id="emergency1" length="5" accel="5" maxSpeed="20" minGap="2.5"  vClass="emergency" guiShape="emergency"/>
  <vType id="emergency2" length="5" accel="5" maxSpeed="20" minGap="2.5"  vClass="emergency" guiShape="firebrigade"/>
  <vType id="emergency3" length="5" accel="5" maxSpeed="20" minGap="2.5"  vClass="emergency" guiShape="police"/>
  <flow id="emergency1" departPos="base" departLane="best" from="p_4_1-t_3_1" to="t_1_16-p_0_16" begin="0" end="1" vehsPerHour="15" type="emergency1"/>
  <vehicle  id="0" departPos="base" departLane="best" depart="0.00" type="type1">
    <route edges="p_4_15-t_3_15 t_3_15-t_3_16 t_3_16-t_2_16 t_2_16-t_2_15 t_2_15-t_2_14 t_2_14-t_2_13 t_2_13-t_2_12 t_2_12-t_2_11 t_2_11-t_2_10 t_2_10-t_2_9 t_2_9-t_2_8 t_2_8-t_2_7 t_2_7-t_3_7 t_3_7-p_4_7 "/>
  </vehicle >
  <vehicle  id="1" departPos="base" departLane="best" depart="0.00" type="type1">
    <route edges="p_4_8-t_3_8 t_3_8-t_3_9 t_3_9-t_3_10 t_3_10-p_4_10 "/>
  </vehicle >
  <vehicle  id="2" departPos="base" departLane="best" depart="0.00" type="type1">
    <route edges="p_4_4-t_3_4 t_3_4-t_3_5 t_3_5-t_3_6 t_3_6-t_3_7 t_3_7-t_3_8 t_3_8-t_3_9 t_3_9-t_3_10 t_3_10-t_3_11 t_3_11-t_3_12 t_3_12-t_3_13 t_3_13-t_3_14 t_3_14-t_3_15 t_3_15-t_3_16 t_3_16-p_3_17 "/>
  </vehicle >
  <vehicle  id="3" departPos="base" departLane="best" depart="0.00" type="type1">
    <route edges="p_3_0-t_3_1 t_3_1-t_3_2 t_3_2-t_3_3 t_3_3-t_3_4 t_3_4-t_3_5 t_3_5-p_4_5 "/>
  </vehicle >
  <vehicle  id="4" departPos="base" departLane="best" depart="0.00" type="type1">
    <route edges="p_4_3-t_3_3 t_3_3-t_3_4 t_3_4-t_3_5 t_3_5-t_3_6 t_3_6-t_3_7 t_3_7-t_3_8 t_3_8-t_3_9 t_3_9-t_3_10 t_3_10-t_3_11 t_3_11-p_4_11 "/>
  </vehicle >
  <vehicle  id="5" departPos="base" departLane="best" depart="0.00" type="type1">
    <route edges="p_4_5-t_3_5 t_3_5-t_3_6 t_3_6-t_3_7 t_3_7-t_3_8 t_3_8-t_2_8 t_2_8-t_1_8 t_1_8-t_1_9 t_1_9-p_0_9 "/>
  </vehicle >
  <vehicle  id="6" departPos="base" departLane="best" depart="0.00" type="type1">
    <route edges="p_4_6-t_3_6 t_3_6-t_3_7 t_3_7-t_3_8 t_3_8-t_3_9 t_3_9-t_3_10 t_3_10-t_3_11 t_3_11-t_3_12 t_3_12-t_3_13 t_3_13-t_3_14 t_3_14-t_3_15 t_3_15-t_3_16 t_3_16-t_2_16 t_2_16-p_2_17 "/>
  </vehicle >
  <vehicle  id="7" departPos="base" departLane="best" depart="0.00" type="type1">
    <route edges="p_4_7-t_3_7 t_3_7-t_3_8 t_3_8-t_2_8 t_2_8-t_2_7 t_2_7-t_2_6 t_2_6-t_2_5 t_2_5-t_3_5 t_3_5-t_3_6 t_3_6-p_4_6 "/>
  </vehicle >
  <vehicle  id="8" departPos="base" departLane="best" depart="0.00" type="type1">
    <route edges="p_4_9-t_3_9 t_3_9-t_3_10 t_3_10-t_3_11 t_3_11-t_3_12 t_3_12-p_4_12 "/>
  </vehicle >
  <vehicle  id="9" departPos="base" departLane="best" depart="0.00" type="type1">
    <route edges="p_4_11-t_3_11 t_3_11-t_3_12 t_3_12-t_3_13 t_3_13-p_4_13 "/>
  </vehicle >
  <vehicle  id="10" departPos="base" departLane="best" depart="0.00" type="type1">
    <route edges="p_4_12-t_3_12 t_3_12-t_2_12 t_2_12-t_1_12 t_1_12-p_0_12 "/>
  </vehicle >
  <vehicle  id="11" departPos="base" departLane="best" depart="0.00" type="type1">
    <route edges="p_4_13-t_3_13 t_3_13-t_3_14 t_3_14-t_2_14 t_2_14-t_2_13 t_2_13-t_2_12 t_2_12-t_2_11 t_2_11-t_2_10 t_2_10-t_2_9 t_2_9-t_3_9 t_3_9-t_3_10 t_3_10-p_4_10 "/>
  </vehicle >
  <vehicle  id="12" departPos="base" departLane="best" depart="0.00" type="type1">
    <route edges="p_3_17-t_3_16 t_3_16-t_2_16 t_2_16-t_2_15 t_2_15-t_2_14 t_2_14-t_2_13 t_2_13-t_2_12 t_2_12-t_2_11 t_2_11-t_2_10 t_2_10-t_2_9 t_2_9-t_2_8 t_2_8-t_2_7 t_2_7-t_2_6 t_2_6-t_2_5 t_2_5-t_2_4 t_2_4-t_2_3 t_2_3-t_2_2 t_2_2-t_2_1 t_2_1-t_3_1 t_3_1-p_3_0 "/>
  </vehicle >
  <vehicle  id="13" departPos="base" departLane="best" depart="0.00" type="type1">
    <route edges="p_2_0-t_2_1 t_2_1-t_1_1 t_1_1-p_1_0 "/>
  </vehicle >
  <vehicle  id="14" departPos="base" departLane="best" depart="0.00" type="type1">
    <route edges="p_1_0-t_1_1 t_1_1-t_2_1 t_2_1-t_3_1 t_3_1-p_3_0 "/>
  </vehicle >
  <vehicle  id="15" departPos="base" departLane="best" depart="0.00" type="type1">
    <route edges="p_0_14-t_1_14 t_1_14-t_1_15 t_1_15-t_1_16 t_1_16-t_2_16 t_2_16-t_3_16 t_3_16-p_3_17 "/>
  </vehicle >
  <vehicle  id="16" departPos="base" departLane="best" depart="0.00" type="type1">
    <route edges="p_0_7-t_1_7 t_1_7-t_2_7 t_2_7-t_3_7 t_3_7-t_3_8 t_3_8-t_3_9 t_3_9-t_3_10 t_3_10-t_3_11 t_3_11-p_4_11 "/>
  </vehicle >
  <vehicle  id="17" departPos="base" departLane="best" depart="0.00" type="type1">
    <route edges="p_0_3-t_1_3 t_1_3-t_1_4 t_1_4-t_1_5 t_1_5-t_1_6 t_1_6-t_1_7 t_1_7-t_1_8 t_1_8-t_1_9 t_1_9-t_1_10 t_1_10-t_1_11 t_1_11-p_0_11 "/>
  </vehicle >
  <vehicle  id="18" departPos="base" departLane="best" depart="0.00" type="type1">
    <route edges="p_2_17-t_2_16 t_2_16-t_2_15 t_2_15-t_2_14 t_2_14-t_2_13 t_2_13-t_2_12 t_2_12-t_2_11 t_2_11-t_2_10 t_2_10-t_2_9 t_2_9-t_3_9 t_3_9-p_4_9 "/>
  </vehicle >
  <vehicle  id="19" departPos="base" departLane="best" depart="1.00" type="type1">
    <route edges="p_4_9-t_3_9 t_3_9-t_3_10 t_3_10-t_3_11 t_3_11-t_3_12 t_3_12-t_3_13 t_3_13-t_3_14 t_3_14-t_3_15 t_3_15-p_4_15 "/>
  </vehicle >
  <vehicle  id="20" departPos="base" departLane="best" depart="1.00" type="type1">
    <route edges="p_4_12-t_3_12 t_3_12-t_3_13 t_3_13-t_3_14 t_3_14-t_3_15 t_3_15-t_3_16 t_3_16-p_3_17 "/>
  </vehicle >
  <vehicle  id="21" departPos="base" departLane="best" depart="3.00" type="type1">
    <route edges="p_0_6-t_1_6 t_1_6-t_1_7 t_1_7-t_2_7 t_2_7-t_2_6 t_2_6-t_2_5 t_2_5-t_2_4 t_2_4-t_1_4 t_1_4-t_1_5 t_1_5-p_0_5 "/>
  </vehicle >
  <vehicle  id="22" departPos="base" departLane="best" depart="7.00" type="type1">
    <route edges="p_3_0-t_3_1 t_3_1-t_3_2 t_3_2-t_3_3 t_3_3-t_3_4 t_3_4-t_3_5 t_3_5-t_3_6 t_3_6-t_3_7 t_3_7-t_3_8 t_3_8-t_3_9 t_3_9-t_3_10 t_3_10-t_3_11 t_3_11-t_3_12 t_3_12-t_3_13 t_3_13-t_3_14 t_3_14-t_3_15 t_3_15-t_3_16 t_3_16-p_3_17 "/>
  </vehicle >
  <vehicle  id="23" departPos="base" departLane="best" depart="9.00" type="type1">
    <route edges="p_1_17-t_1_16 t_1_16-t_2_16 t_2_16-p_2_17 "/>
  </vehicle >
  <vehicle  id="24" departPos="base" departLane="best" depart="12.00" type="type1">
    <route edges="p_4_3-t_3_3 t_3_3-t_3_4 t_3_4-t_3_5 t_3_5-t_3_6 t_3_6-t_3_7 t_3_7-t_3_8 t_3_8-t_3_9 t_3_9-t_3_10 t_3_10-t_3_11 t_3_11-t_3_12 t_3_12-t_3_13 t_3_13-t_3_14 t_3_14-t_3_15 t_3_15-p_4_15 "/>
  </vehicle >
  <vehicle  id="25" departPos="base" departLane="best" depart="12.00" type="type1">
    <route edges="p_4_5-t_3_5 t_3_5-t_3_6 t_3_6-t_2_6 t_2_6-t_2_5 t_2_5-t_2_4 t_2_4-t_2_3 t_2_3-t_2_2 t_2_2-t_2_1 t_2_1-p_2_0 "/>
  </vehicle >
  <vehicle  id="26" departPos="base" departLane="best" depart="13.00" type="type1">
    <route edges="p_4_11-t_3_11 t_3_11-t_3_12 t_3_12-t_2_12 t_2_12-t_2_11 t_2_11-t_2_10 t_2_10-t_2_9 t_2_9-t_2_8 t_2_8-t_2_7 t_2_7-t_2_6 t_2_6-t_2_5 t_2_5-t_2_4 t_2_4-t_1_4 t_1_4-t_1_5 t_1_5-p_0_5 "/>
  </vehicle >
  <vehicle  id="27" departPos="base" departLane="best" depart="15.00" type="type1">
    <route edges="p_4_4-t_3_4 t_3_4-t_2_4 t_2_4-t_1_4 t_1_4-t_1_5 t_1_5-t_1_6 t_1_6-t_1_7 t_1_7-t_1_8 t_1_8-t_1_9 t_1_9-t_1_10 t_1_10-t_1_11 t_1_11-p_0_11 "/>
  </vehicle >
  <vehicle  id="28" departPos="base" departLane="best" depart="15.00" type="type1">
    <route edges="p_4_2-t_3_2 t_3_2-t_2_2 t_2_2-t_2_1 t_2_1-p_2_0 "/>
  </vehicle >
  <vehicle  id="29" departPos="base" departLane="best" depart="17.00" type="type1">
    <route edges="p_4_7-t_3_7 t_3_7-t_3_8 t_3_8-t_2_8 t_2_8-t_2_7 t_2_7-t_2_6 t_2_6-t_2_5 t_2_5-t_2_4 t_2_4-t_2_3 t_2_3-t_2_2 t_2_2-t_2_1 t_2_1-t_3_1 t_3_1-p_3_0 "/>
  </vehicle >
  <vehicle  id="30" departPos="base" departLane="best" depart="20.00" type="type1">
    <route edges="p_3_17-t_3_16 t_3_16-t_2_16 t_2_16-t_2_15 t_2_15-t_2_14 t_2_14-t_2_13 t_2_13-t_2_12 t_2_12-t_2_11 t_2_11-t_2_10 t_2_10-t_2_9 t_2_9-t_3_9 t_3_9-t_3_10 t_3_10-p_4_10 "/>
  </vehicle >
  <vehicle  id="31" departPos="base" departLane="best" depart="24.00" type="type1">
    <route edges="p_1_0-t_1_1 t_1_1-t_2_1 t_2_1-t_3_1 t_3_1-p_3_0 "/>
  </vehicle >
  <vehicle  id="32" departPos="base" departLane="best" depart="26.00" type="type1">
    <route edges="p_3_0-t_3_1 t_3_1-t_3_2 t_3_2-t_3_3 t_3_3-t_3_4 t_3_4-t_3_5 t_3_5-t_3_6 t_3_6-t_3_7 t_3_7-t_3_8 t_3_8-t_3_9 t_3_9-t_3_10 t_3_10-t_3_11 t_3_11-t_3_12 t_3_12-t_3_13 t_3_13-t_3_14 t_3_14-t_3_15 t_3_15-t_3_16 t_3_16-p_3_17 "/>
  </vehicle >
  <vehicle  id="33" departPos="base" departLane="best" depart="26.00" type="type1">
    <route edges="p_3_17-t_3_16 t_3_16-t_2_16 t_2_16-t_2_15 t_2_15-t_2_14 t_2_14-t_2_13 t_2_13-t_2_12 t_2_12-t_2_11 t_2_11-t_2_10 t_2_10-t_2_9 t_2_9-t_2_8 t_2_8-t_2_7 t_2_7-t_2_6 t_2_6-t_2_5 t_2_5-t_2_4 t_2_4-t_2_3 t_2_3-t_2_2 t_2_2-t_2_1 t_2_1-t_1_1 t_1_1-p_1_0 "/>
  </vehicle >
  <vehicle  id="34" departPos="base" departLane="best" depart="27.00" type="type1">
    <route edges="p_4_11-t_3_11 t_3_11-t_3_12 t_3_12-t_2_12 t_2_12-t_2_11 t_2_11-t_2_10 t_2_10-t_2_9 t_2_9-t_2_8 t_2_8-t_2_7 t_2_7-t_2_6 t_2_6-t_2_5 t_2_5-t_2_4 t_2_4-t_2_3 t_2_3-t_2_2 t_2_2-t_2_1 t_2_1-t_3_1 t_3_1-p_3_0 "/>
  </vehicle >
  <vehicle  id="35" departPos="base" departLane="best" depart="27.00" type="type1">
    <route edges="p_3_17-t_3_16 t_3_16-t_2_16 t_2_16-t_2_15 t_2_15-t_2_14 t_2_14-t_2_13 t_2_13-t_2_12 t_2_12-t_2_11 t_2_11-t_2_10 t_2_10-t_2_9 t_2_9-t_2_8 t_2_8-t_2_7 t_2_7-t_2_6 t_2_6-t_2_5 t_2_5-t_3_5 t_3_5-p_4_5 "/>
  </vehicle >
  <vehicle  id="36" departPos="base" departLane="best" depart="28.00" type="type1">
    <route edges="p_4_2-t_3_2 t_3_2-t_3_3 t_3_3-t_3_4 t_3_4-t_3_5 t_3_5-t_3_6 t_3_6-t_3_7 t_3_7-t_3_8 t_3_8-t_3_9 t_3_9-t_3_10 t_3_10-t_3_11 t_3_11-p_4_11 "/>
  </vehicle >
  <vehicle  id="37" departPos="base" departLane="best" depart="33.00" type="type1">
    <route edges="p_4_8-t_3_8 t_3_8-t_2_8 t_2_8-t_2_7 t_2_7-t_2_6 t_2_6-t_2_5 t_2_5-t_2_4 t_2_4-t_2_3 t_2_3-t_2_2 t_2_2-t_2_1 t_2_1-t_3_1 t_3_1-p_3_0 "/>
  </vehicle >
  <vehicle  id="38" departPos="base" departLane="best" depart="41.00" type="type1">
    <route edges="p_4_7-t_3_7 t_3_7-t_3_8 t_3_8-t_2_8 t_2_8-t_2_7 t_2_7-t_2_6 t_2_6-t_1_6 t_1_6-p_0_6 "/>
  </vehicle >
  <vehicle  id="39" departPos="base" departLane="best" depart="46.00" type="type1">
    <route edges="p_4_8-t_3_8 t_3_8-t_2_8 t_2_8-t_2_7 t_2_7-t_2_6 t_2_6-t_2_5 t_2_5-t_2_4 t_2_4-t_1_4 t_1_4-t_1_5 t_1_5-p_0_5 "/>
  </vehicle >
  <vehicle  id="40" departPos="base" departLane="best" depart="50.00" type="type1">
    <route edges="p_4_11-t_3_11 t_3_11-t_3_12 t_3_12-t_2_12 t_2_12-t_2_11 t_2_11-t_2_10 t_2_10-t_2_9 t_2_9-t_2_8 t_2_8-t_2_7 t_2_7-t_2_6 t_2_6-t_2_5 t_2_5-t_2_4 t_2_4-t_2_3 t_2_3-t_2_2 t_2_2-t_2_1 t_2_1-t_3_1 t_3_1-t_3_2 t_3_2-p_4_2 "/>
  </vehicle >
  <vehicle  id="41" departPos="base" departLane="best" depart="50.00" type="type1">
    <route edges="p_1_0-t_1_1 t_1_1-t_1_2 t_1_2-t_1_3 t_1_3-t_1_4 t_1_4-t_1_5 t_1_5-t_1_6 t_1_6-t_1_7 t_1_7-t_1_8 t_1_8-t_1_9 t_1_9-t_1_10 t_1_10-t_1_11 t_1_11-t_1_12 t_1_12-t_1_13 t_1_13-t_1_14 t_1_14-t_1_15 t_1_15-t_2_15 t_2_15-t_3_15 t_3_15-t_3_16 t_3_16-p_3_17 "/>
  </vehicle >
  <vehicle  id="42" departPos="base" departLane="best" depart="56.00" type="type1">
    <route edges="p_4_14-t_3_14 t_3_14-t_2_14 t_2_14-t_2_13 t_2_13-t_2_12 t_2_12-t_2_11 t_2_11-t_3_11 t_3_11-t_3_12 t_3_12-p_4_12 "/>
  </vehicle >
  <vehicle  id="43" departPos="base" departLane="best" depart="57.00" type="type1">
    <route edges="p_4_4-t_3_4 t_3_4-t_3_5 t_3_5-t_3_6 t_3_6-t_2_6 t_2_6-t_1_6 t_1_6-p_0_6 "/>
  </vehicle >
  <vehicle  id="44" departPos="base" departLane="best" depart="60.00" type="type1">
    <route edges="p_4_4-t_3_4 t_3_4-t_2_4 t_2_4-t_2_3 t_2_3-t_2_2 t_2_2-t_2_1 t_2_1-t_3_1 t_3_1-t_3_2 t_3_2-p_4_2 "/>
  </vehicle >
  <vehicle  id="45" departPos="base" departLane="best" depart="60.00" type="type1">
    <route edges="p_4_5-t_3_5 t_3_5-t_3_6 t_3_6-p_4_6 "/>
  </vehicle >
  <vehicle  id="46" departPos="base" departLane="best" depart="60.00" type="type1">
    <route edges="p_4_6-t_3_6 t_3_6-t_2_6 t_2_6-t_2_5 t_2_5-t_2_4 t_2_4-t_2_3 t_2_3-t_3_3 t_3_3-p_4_3 "/>
  </vehicle >
  <vehicle  id="47" departPos="base" departLane="best" depart="60.00" type="type1">
    <route edges="p_4_7-t_3_7 t_3_7-t_3_8 t_3_8-t_2_8 t_2_8-t_2_7 t_2_7-t_2_6 t_2_6-t_2_5 t_2_5-t_2_4 t_2_4-t_2_3 t_2_3-t_2_2 t_2_2-t_2_1 t_2_1-t_3_1 t_3_1-p_3_0 "/>
  </vehicle >
  <vehicle  id="48" departPos="base" departLane="best" depart="60.00" type="type1">
    <route edges="p_4_10-t_3_10 t_3_10-t_2_10 t_2_10-t_2_9 t_2_9-t_3_9 t_3_9-p_4_9 "/>
  </vehicle >
  <vehicle  id="49" departPos="base" departLane="best" depart="60.00" type="type1">
    <route edges="p_4_12-t_3_12 t_3_12-t_3_13 t_3_13-t_3_14 t_3_14-p_4_14 "/>
  </vehicle >
  <vehicle  id="50" departPos="base" departLane="best" depart="60.00" type="type1">
    <route edges="p_4_13-t_3_13 t_3_13-t_3_14 t_3_14-t_2_14 t_2_14-t_2_13 t_2_13-t_2_12 t_2_12-t_2_11 t_2_11-t_2_10 t_2_10-t_2_9 t_2_9-t_2_8 t_2_8-t_2_7 t_2_7-t_2_6 t_2_6-t_2_5 t_2_5-t_3_5 t_3_5-t_3_6 t_3_6-p_4_6 "/>
  </vehicle >
  <vehicle  id="51" departPos="base" departLane="best" depart="60.00" type="type1">
    <route edges="p_3_17-t_3_16 t_3_16-t_2_16 t_2_16-t_2_15 t_2_15-t_2_14 t_2_14-t_2_13 t_2_13-t_2_12 t_2_12-t_2_11 t_2_11-t_2_10 t_2_10-t_2_9 t_2_9-t_2_8 t_2_8-t_2_7 t_2_7-t_2_6 t_2_6-t_2_5 t_2_5-t_2_4 t_2_4-t_2_3 t_2_3-t_2_2 t_2_2-t_2_1 t_2_1-p_2_0 "/>
  </vehicle >
  <vehicle  id="52" departPos="base" departLane="best" depart="60.00" type="type1">
    <route edges="p_2_17-t_2_16 t_2_16-t_2_15 t_2_15-t_2_14 t_2_14-t_2_13 t_2_13-t_2_12 t_2_12-t_2_11 t_2_11-t_2_10 t_2_10-t_2_9 t_2_9-t_2_8 t_2_8-t_2_7 t_2_7-t_2_6 t_2_6-t_2_5 t_2_5-t_2_4 t_2_4-t_2_3 t_2_3-t_2_2 t_2_2-t_2_1 t_2_1-p_2_0 "/>
  </vehicle >
  <vehicle  id="53" departPos="base" departLane="best" depart="60.00" type="type1">
    <route edges="p_0_13-t_1_13 t_1_13-t_2_13 t_2_13-t_2_12 t_2_12-t_2_11 t_2_11-t_2_10 t_2_10-t_2_9 t_2_9-t_2_8 t_2_8-t_1_8 t_1_8-p_0_8 "/>
  </vehicle >
  <vehicle  id="54" departPos="base" departLane="best" depart="60.00" type="type1">
    <route edges="p_1_17-t_1_16 t_1_16-t_2_16 t_2_16-t_2_15 t_2_15-t_2_14 t_2_14-t_2_13 t_2_13-t_2_12 t_2_12-t_2_11 t_2_11-t_2_10 t_2_10-t_2_9 t_2_9-t_2_8 t_2_8-t_2_7 t_2_7-t_2_6 t_2_6-t_2_5 t_2_5-t_2_4 t_2_4-t_2_3 t_2_3-t_2_2 t_2_2-t_2_1 t_2_1-t_3_1 t_3_1-t_3_2 t_3_2-p_4_2 "/>
  </vehicle >
  <vehicle  id="55" departPos="base" departLane="best" depart="60.00" type="type1">
    <route edges="p_4_2-t_3_2 t_3_2-t_2_2 t_2_2-t_2_1 t_2_1-p_2_0 "/>
  </vehicle >
  <vehicle  id="56" departPos="base" departLane="best" depart="66.00" type="type1">
    <route edges="p_4_4-t_3_4 t_3_4-t_3_5 t_3_5-t_3_6 t_3_6-t_3_7 t_3_7-t_3_8 t_3_8-t_3_9 t_3_9-t_3_10 t_3_10-t_3_11 t_3_11-t_3_12 t_3_12-p_4_12 "/>
  </vehicle >
  <vehicle  id="57" departPos="base" departLane="best" depart="66.00" type="type1">
    <route edges="p_4_9-t_3_9 t_3_9-t_3_10 t_3_10-t_3_11 t_3_11-t_3_12 t_3_12-t_3_13 t_3_13-t_3_14 t_3_14-t_3_15 t_3_15-t_3_16 t_3_16-p_3_17 "/>
  </vehicle >
  <vehicle  id="58" departPos="base" departLane="best" depart="71.00" type="type1">
    <route edges="p_1_0-t_1_1 t_1_1-t_1_2 t_1_2-t_1_3 t_1_3-t_2_3 t_2_3-t_3_3 t_3_3-t_3_4 t_3_4-t_3_5 t_3_5-t_3_6 t_3_6-p_4_6 "/>
  </vehicle >
  <vehicle  id="59" departPos="base" departLane="best" depart="72.00" type="type1">
    <route edges="p_1_0-t_1_1 t_1_1-t_1_2 t_1_2-t_1_3 t_1_3-t_2_3 t_2_3-t_3_3 t_3_3-t_3_4 t_3_4-t_3_5 t_3_5-t_3_6 t_3_6-t_3_7 t_3_7-p_4_7 "/>
  </vehicle >
  <vehicle  id="60" departPos="base" departLane="best" depart="72.00" type="type1">
    <route edges="p_0_14-t_1_14 t_1_14-t_1_15 t_1_15-t_2_15 t_2_15-t_2_14 t_2_14-t_2_13 t_2_13-t_3_13 t_3_13-p_4_13 "/>
  </vehicle >
  <vehicle  id="61" departPos="base" departLane="best" depart="75.00" type="type1">
    <route edges="p_4_5-t_3_5 t_3_5-t_3_6 t_3_6-t_2_6 t_2_6-t_1_6 t_1_6-p_0_6 "/>
  </vehicle >
  <vehicle  id="62" departPos="base" departLane="best" depart="79.00" type="type1">
    <route edges="p_0_14-t_1_14 t_1_14-t_1_15 t_1_15-t_2_15 t_2_15-t_2_14 t_2_14-t_2_13 t_2_13-t_2_12 t_2_12-t_1_12 t_1_12-t_1_13 t_1_13-p_0_13 "/>
  </vehicle >
  <vehicle  id="63" departPos="base" departLane="best" depart="81.00" type="type1">
    <route edges="p_4_5-t_3_5 t_3_5-t_3_6 t_3_6-t_2_6 t_2_6-t_2_5 t_2_5-t_2_4 t_2_4-t_2_3 t_2_3-t_3_3 t_3_3-t_3_4 t_3_4-p_4_4 "/>
  </vehicle >
  <vehicle  id="64" departPos="base" departLane="best" depart="82.00" type="type1">
    <route edges="p_3_17-t_3_16 t_3_16-t_2_16 t_2_16-p_2_17 "/>
  </vehicle >
  <vehicle  id="65" departPos="base" departLane="best" depart="83.00" type="type1">
    <route edges="p_4_4-t_3_4 t_3_4-t_3_5 t_3_5-p_4_5 "/>
  </vehicle >
  <vehicle  id="66" departPos="base" departLane="best" depart="84.00" type="type1">
    <route edges="p_4_14-t_3_14 t_3_14-t_2_14 t_2_14-t_2_13 t_2_13-t_2_12 t_2_12-t_2_11 t_2_11-t_2_10 t_2_10-t_2_9 t_2_9-t_2_8 t_2_8-t_2_7 t_2_7-t_2_6 t_2_6-t_2_5 t_2_5-t_2_4 t_2_4-t_2_3 t_2_3-t_3_3 t_3_3-p_4_3 "/>
  </vehicle >
  <vehicle  id="67" departPos="base" departLane="best" depart="87.00" type="type1">
    <route edges="p_0_8-t_1_8 t_1_8-t_1_9 t_1_9-t_1_10 t_1_10-t_1_11 t_1_11-t_1_12 t_1_12-t_1_13 t_1_13-t_1_14 t_1_14-t_1_15 t_1_15-t_2_15 t_2_15-t_3_15 t_3_15-p_4_15 "/>
  </vehicle >
  <vehicle  id="68" departPos="base" departLane="best" depart="87.00" type="type1">
    <route edges="p_4_7-t_3_7 t_3_7-t_3_8 t_3_8-t_3_9 t_3_9-t_3_10 t_3_10-t_3_11 t_3_11-t_3_12 t_3_12-t_3_13 t_3_13-p_4_13 "/>
  </vehicle >
  <vehicle  id="69" departPos="base" departLane="best" depart="91.00" type="type1">
    <route edges="p_3_17-t_3_16 t_3_16-t_2_16 t_2_16-t_2_15 t_2_15-t_2_14 t_2_14-t_2_13 t_2_13-t_2_12 t_2_12-t_2_11 t_2_11-t_2_10 t_2_10-t_2_9 t_2_9-t_2_8 t_2_8-t_2_7 t_2_7-t_2_6 t_2_6-t_2_5 t_2_5-t_3_5 t_3_5-t_3_6 t_3_6-p_4_6 "/>
  </vehicle >
  <vehicle  id="70" departPos="base" departLane="best" depart="97.00" type="type1">
    <route edges="p_3_17-t_3_16 t_3_16-t_2_16 t_2_16-t_2_15 t_2_15-t_2_14 t_2_14-t_2_13 t_2_13-t_2_12 t_2_12-t_2_11 t_2_11-t_2_10 t_2_10-t_2_9 t_2_9-t_2_8 t_2_8-t_2_7 t_2_7-t_2_6 t_2_6-t_2_5 t_2_5-t_2_4 t_2_4-t_2_3 t_2_3-t_3_3 t_3_3-t_3_4 t_3_4-p_4_4 "/>
  </vehicle >
  <vehicle  id="71" departPos="base" departLane="best" depart="100.00" type="type1">
    <route edges="p_0_15-t_1_15 t_1_15-t_2_15 t_2_15-t_2_14 t_2_14-t_2_13 t_2_13-t_2_12 t_2_12-t_2_11 t_2_11-t_2_10 t_2_10-t_2_9 t_2_9-t_2_8 t_2_8-t_2_7 t_2_7-t_2_6 t_2_6-t_1_6 t_1_6-t_1_7 t_1_7-p_0_7 "/>
  </vehicle >
  <vehicle  id="72" departPos="base" departLane="best" depart="100.00" type="type1">
    <route edges="p_2_0-t_2_1 t_2_1-t_3_1 t_3_1-t_3_2 t_3_2-t_3_3 t_3_3-t_3_4 t_3_4-t_3_5 t_3_5-t_3_6 t_3_6-t_3_7 t_3_7-t_3_8 t_3_8-t_3_9 t_3_9-t_3_10 t_3_10-t_3_11 t_3_11-t_3_12 t_3_12-p_4_12 "/>
  </vehicle >
  <vehicle  id="73" departPos="base" departLane="best" depart="103.00" type="type1">
    <route edges="p_1_17-t_1_16 t_1_16-t_2_16 t_2_16-p_2_17 "/>
  </vehicle >
  <vehicle  id="74" departPos="base" departLane="best" depart="107.00" type="type1">
    <route edges="p_0_5-t_1_5 t_1_5-t_2_5 t_2_5-t_3_5 t_3_5-t_3_6 t_3_6-t_3_7 t_3_7-t_3_8 t_3_8-p_4_8 "/>
  </vehicle >
  <vehicle  id="75" departPos="base" departLane="best" depart="112.00" type="type1">
    <route edges="p_3_0-t_3_1 t_3_1-t_2_1 t_2_1-t_1_1 t_1_1-p_1_0 "/>
  </vehicle >
  <vehicle  id="76" departPos="base" departLane="best" depart="114.00" type="type1">
    <route edges="p_4_15-t_3_15 t_3_15-t_3_16 t_3_16-p_3_17 "/>
  </vehicle >
  <vehicle  id="77" departPos="base" departLane="best" depart="115.00" type="type1">
    <route edges="p_4_5-t_3_5 t_3_5-t_3_6 t_3_6-p_4_6 "/>
  </vehicle >
  <vehicle  id="78" departPos="base" departLane="best" depart="118.00" type="type1">
    <route edges="p_1_17-t_1_16 t_1_16-t_2_16 t_2_16-t_2_15 t_2_15-t_2_14 t_2_14-t_2_13 t_2_13-t_2_12 t_2_12-t_2_11 t_2_11-t_2_10 t_2_10-t_2_9 t_2_9-t_3_9 t_3_9-p_4_9 "/>
  </vehicle >
  <vehicle  id="79" departPos="base" departLane="best" depart="120.00" type="type1">
    <route edges="p_4_15-t_3_15 t_3_15-t_3_16 t_3_16-t_2_16 t_2_16-t_2_15 t_2_15-t_2_14 t_2_14-t_2_13 t_2_13-t_2_12 t_2_12-t_2_11 t_2_11-t_2_10 t_2_10-t_2_9 t_2_9-t_2_8 t_2_8-t_2_7 t_2_7-t_2_6 t_2_6-t_2_5 t_2_5-t_2_4 t_2_4-t_1_4 t_1_4-t_1_5 t_1_5-p_0_5 "/>
  </vehicle >
  <vehicle  id="80" departPos="base" departLane="best" depart="120.00" type="type1">
    <route edges="p_4_8-t_3_8 t_3_8-t_2_8 t_2_8-t_2_7 t_2_7-t_2_6 t_2_6-t_2_5 t_2_5-t_2_4 t_2_4-t_2_3 t_2_3-t_2_2 t_2_2-t_2_1 t_2_1-t_1_1 t_1_1-p_1_0 "/>
  </vehicle >
  <vehicle  id="81" departPos="base" departLane="best" depart="120.00" type="type1">
    <route edges="p_0_8-t_1_8 t_1_8-t_1_9 t_1_9-t_2_9 t_2_9-t_3_9 t_3_9-p_4_9 "/>
  </vehicle >
  <vehicle  id="82" departPos="base" departLane="best" depart="120.00" type="type1">
    <route edges="p_3_0-t_3_1 t_3_1-t_3_2 t_3_2-t_3_3 t_3_3-t_3_4 t_3_4-p_4_4 "/>
  </vehicle >
  <vehicle  id="83" departPos="base" departLane="best" depart="120.00" type="type1">
    <route edges="p_4_3-t_3_3 t_3_3-t_3_4 t_3_4-t_3_5 t_3_5-t_3_6 t_3_6-t_3_7 t_3_7-t_3_8 t_3_8-t_3_9 t_3_9-t_3_10 t_3_10-t_3_11 t_3_11-t_3_12 t_3_12-t_3_13 t_3_13-t_3_14 t_3_14-t_2_14 t_2_14-t_1_14 t_1_14-t_1_15 t_1_15-t_1_16 t_1_16-p_1_17 "/>
  </vehicle >
  <vehicle  id="84" departPos="base" departLane="best" depart="120.00" type="type1">
    <route edges="p_4_5-t_3_5 t_3_5-t_3_6 t_3_6-t_2_6 t_2_6-t_2_5 t_2_5-t_2_4 t_2_4-t_2_3 t_2_3-t_2_2 t_2_2-t_2_1 t_2_1-p_2_0 "/>
  </vehicle >
  <vehicle  id="85" departPos="base" departLane="best" depart="120.00" type="type1">
    <route edges="p_4_6-t_3_6 t_3_6-t_3_7 t_3_7-p_4_7 "/>
  </vehicle >
  <vehicle  id="86" departPos="base" departLane="best" depart="120.00" type="type1">
    <route edges="p_4_7-t_3_7 t_3_7-t_3_8 t_3_8-t_3_9 t_3_9-t_3_10 t_3_10-t_3_11 t_3_11-t_3_12 t_3_12-p_4_12 "/>
  </vehicle >
  <vehicle  id="87" departPos="base" departLane="best" depart="120.00" type="type1">
    <route edges="p_4_9-t_3_9 t_3_9-t_3_10 t_3_10-t_2_10 t_2_10-t_2_9 t_2_9-t_2_8 t_2_8-t_2_7 t_2_7-t_3_7 t_3_7-t_3_8 t_3_8-p_4_8 "/>
  </vehicle >
  <vehicle  id="88" departPos="base" departLane="best" depart="120.00" type="type1">
    <route edges="p_4_10-t_3_10 t_3_10-t_3_11 t_3_11-t_3_12 t_3_12-t_3_13 t_3_13-t_3_14 t_3_14-t_2_14 t_2_14-t_1_14 t_1_14-p_0_14 "/>
  </vehicle >
  <vehicle  id="89" departPos="base" departLane="best" depart="120.00" type="type1">
    <route edges="p_4_11-t_3_11 t_3_11-t_3_12 t_3_12-t_2_12 t_2_12-t_2_11 t_2_11-t_2_10 t_2_10-t_2_9 t_2_9-t_2_8 t_2_8-t_2_7 t_2_7-t_2_6 t_2_6-t_2_5 t_2_5-t_2_4 t_2_4-t_1_4 t_1_4-t_1_5 t_1_5-p_0_5 "/>
  </vehicle >
  <vehicle  id="90" departPos="base" departLane="best" depart="120.00" type="type1">
    <route edges="p_4_12-t_3_12 t_3_12-t_2_12 t_2_12-t_2_11 t_2_11-t_2_10 t_2_10-t_2_9 t_2_9-t_2_8 t_2_8-t_2_7 t_2_7-t_2_6 t_2_6-t_2_5 t_2_5-t_3_5 t_3_5-t_3_6 t_3_6-p_4_6 "/>
  </vehicle >
  <vehicle  id="91" departPos="base" departLane="best" depart="120.00" type="type1">
    <route edges="p_4_14-t_3_14 t_3_14-t_2_14 t_2_14-t_1_14 t_1_14-t_1_15 t_1_15-t_1_16 t_1_16-p_1_17 "/>
  </vehicle >
  <vehicle  id="92" departPos="base" departLane="best" depart="120.00" type="type1">
    <route edges="p_3_17-t_3_16 t_3_16-t_2_16 t_2_16-t_1_16 t_1_16-p_1_17 "/>
  </vehicle >
  <vehicle  id="93" departPos="base" departLane="best" depart="120.00" type="type1">
    <route edges="p_1_0-t_1_1 t_1_1-t_2_1 t_2_1-t_3_1 t_3_1-p_3_0 "/>
  </vehicle >
  <vehicle  id="94" departPos="base" departLane="best" depart="120.00" type="type1">
    <route edges="p_0_9-t_1_9 t_1_9-t_2_9 t_2_9-t_3_9 t_3_9-t_3_10 t_3_10-t_3_11 t_3_11-t_3_12 t_3_12-t_3_13 t_3_13-t_3_14 t_3_14-p_4_14 "/>
  </vehicle >
  <vehicle  id="95" departPos="base" departLane="best" depart="120.00" type="type1">
    <route edges="p_0_7-t_1_7 t_1_7-t_1_8 t_1_8-t_1_9 t_1_9-t_1_10 t_1_10-t_1_11 t_1_11-t_1_12 t_1_12-t_1_13 t_1_13-t_1_14 t_1_14-p_0_14 "/>
  </vehicle >
  <vehicle  id="96" departPos="base" departLane="best" depart="120.00" type="type1">
    <route edges="p_0_3-t_1_3 t_1_3-t_2_3 t_2_3-t_3_3 t_3_3-t_3_4 t_3_4-t_3_5 t_3_5-t_3_6 t_3_6-t_3_7 t_3_7-t_3_8 t_3_8-t_3_9 t_3_9-t_3_10 t_3_10-t_3_11 t_3_11-t_3_12 t_3_12-p_4_12 "/>
  </vehicle >
  <vehicle  id="97" departPos="base" departLane="best" depart="120.00" type="type1">
    <route edges="p_2_17-t_2_16 t_2_16-t_2_15 t_2_15-t_2_14 t_2_14-t_2_13 t_2_13-t_2_12 t_2_12-t_2_11 t_2_11-t_2_10 t_2_10-t_2_9 t_2_9-t_2_8 t_2_8-t_2_7 t_2_7-t_2_6 t_2_6-t_1_6 t_1_6-t_1_7 t_1_7-p_0_7 "/>
  </vehicle >
  <vehicle  id="98" departPos="base" departLane="best" depart="120.00" type="type1">
    <route edges="p_0_11-t_1_11 t_1_11-t_2_11 t_2_11-t_2_10 t_2_10-t_2_9 t_2_9-t_3_9 t_3_9-p_4_9 "/>
  </vehicle >
  <vehicle  id="99" departPos="base" departLane="best" depart="120.00" type="type1">
    <route edges="p_0_12-t_1_12 t_1_12-t_1_13 t_1_13-t_2_13 t_2_13-t_2_12 t_2_12-t_2_11 t_2_11-t_2_10 t_2_10-t_2_9 t_2_9-t_2_8 t_2_8-t_2_7 t_2_7-t_2_6 t_2_6-t_1_6 t_1_6-p_0_6 "/>
  </vehicle >
  <vehicle  id="100" departPos="base" departLane="best" depart="120.00" type="type1">
    <route edges="p_0_5-t_1_5 t_1_5-t_2_5 t_2_5-t_2_4 t_2_4-t_2_3 t_2_3-t_2_2 t_2_2-t_2_1 t_2_1-t_1_1 t_1_1-p_1_0 "/>
  </vehicle >
  <vehicle  id="101" departPos="base" departLane="best" depart="121.00" type="type1">
    <route edges="p_2_17-t_2_16 t_2_16-t_2_15 t_2_15-t_3_15 t_3_15-p_4_15 "/>
  </vehicle >
  <vehicle  id="102" departPos="base" departLane="best" depart="127.00" type="type1">
    <route edges="p_4_8-t_3_8 t_3_8-t_3_9 t_3_9-t_3_10 t_3_10-t_3_11 t_3_11-t_3_12 t_3_12-p_4_12 "/>
  </vehicle >
  <vehicle  id="103" departPos="base" departLane="best" depart="127.00" type="type1">
    <route edges="p_4_12-t_3_12 t_3_12-t_2_12 t_2_12-t_1_12 t_1_12-t_1_13 t_1_13-p_0_13 "/>
  </vehicle >
  <vehicle  id="104" departPos="base" departLane="best" depart="127.00" type="type1">
    <route edges="p_1_17-t_1_16 t_1_16-t_2_16 t_2_16-p_2_17 "/>
  </vehicle >
  <vehicle  id="105" departPos="base" departLane="best" depart="130.00" type="type1">
    <route edges="p_4_7-t_3_7 t_3_7-t_3_8 t_3_8-t_2_8 t_2_8-t_2_7 t_2_7-t_2_6 t_2_6-t_2_5 t_2_5-t_2_4 t_2_4-t_2_3 t_2_3-t_2_2 t_2_2-t_2_1 t_2_1-t_3_1 t_3_1-p_3_0 "/>
  </vehicle >
  <vehicle  id="106" departPos="base" departLane="best" depart="130.00" type="type1">
    <route edges="p_1_0-t_1_1 t_1_1-t_1_2 t_1_2-t_1_3 t_1_3-t_2_3 t_2_3-t_3_3 t_3_3-t_3_4 t_3_4-t_3_5 t_3_5-t_3_6 t_3_6-t_3_7 t_3_7-t_3_8 t_3_8-t_3_9 t_3_9-t_3_10 t_3_10-t_3_11 t_3_11-t_3_12 t_3_12-p_4_12 "/>
  </vehicle >
  <vehicle  id="107" departPos="base" departLane="best" depart="132.00" type="type1">
    <route edges="p_4_6-t_3_6 t_3_6-t_3_7 t_3_7-t_3_8 t_3_8-t_3_9 t_3_9-t_3_10 t_3_10-t_3_11 t_3_11-t_3_12 t_3_12-t_3_13 t_3_13-t_3_14 t_3_14-t_3_15 t_3_15-t_3_16 t_3_16-p_3_17 "/>
  </vehicle >
  <vehicle  id="108" departPos="base" departLane="best" depart="134.00" type="type1">
    <route edges="p_3_0-t_3_1 t_3_1-t_3_2 t_3_2-t_3_3 t_3_3-t_3_4 t_3_4-t_3_5 t_3_5-t_3_6 t_3_6-t_3_7 t_3_7-t_3_8 t_3_8-t_3_9 t_3_9-t_3_10 t_3_10-t_3_11 t_3_11-t_3_12 t_3_12-p_4_12 "/>
  </vehicle >
  <vehicle  id="109" departPos="base" departLane="best" depart="136.00" type="type1">
    <route edges="p_0_2-t_1_2 t_1_2-t_1_3 t_1_3-t_1_4 t_1_4-t_1_5 t_1_5-t_1_6 t_1_6-t_1_7 t_1_7-t_1_8 t_1_8-t_1_9 t_1_9-t_1_10 t_1_10-t_1_11 t_1_11-t_1_12 t_1_12-t_1_13 t_1_13-t_1_14 t_1_14-p_0_14 "/>
  </vehicle >
  <vehicle  id="110" departPos="base" departLane="best" depart="138.00" type="type1">
    <route edges="p_3_17-t_3_16 t_3_16-t_2_16 t_2_16-t_2_15 t_2_15-t_2_14 t_2_14-t_2_13 t_2_13-t_3_13 t_3_13-t_3_14 t_3_14-p_4_14 "/>
  </vehicle >
  <vehicle  id="111" departPos="base" departLane="best" depart="141.00" type="type1">
    <route edges="p_1_0-t_1_1 t_1_1-t_2_1 t_2_1-t_3_1 t_3_1-p_3_0 "/>
  </vehicle >
  <vehicle  id="112" departPos="base" departLane="best" depart="143.00" type="type1">
    <route edges="p_0_13-t_1_13 t_1_13-t_2_13 t_2_13-t_2_12 t_2_12-t_2_11 t_2_11-t_2_10 t_2_10-t_2_9 t_2_9-t_2_8 t_2_8-t_2_7 t_2_7-t_3_7 t_3_7-t_3_8 t_3_8-p_4_8 "/>
  </vehicle >
  <vehicle  id="113" departPos="base" departLane="best" depart="145.00" type="type1">
    <route edges="p_4_5-t_3_5 t_3_5-t_3_6 t_3_6-t_2_6 t_2_6-t_1_6 t_1_6-p_0_6 "/>
  </vehicle >
  <vehicle  id="114" departPos="base" departLane="best" depart="147.00" type="type1">
    <route edges="p_4_5-t_3_5 t_3_5-t_3_6 t_3_6-t_3_7 t_3_7-t_3_8 t_3_8-t_3_9 t_3_9-t_3_10 t_3_10-t_3_11 t_3_11-t_3_12 t_3_12-t_3_13 t_3_13-t_3_14 t_3_14-t_3_15 t_3_15-t_3_16 t_3_16-t_2_16 t_2_16-p_2_17 "/>
  </vehicle >
  <vehicle  id="115" departPos="base" departLane="best" depart="148.00" type="type1">
    <route edges="p_0_15-t_1_15 t_1_15-t_2_15 t_2_15-t_2_14 t_2_14-t_2_13 t_2_13-t_2_12 t_2_12-t_2_11 t_2_11-t_2_10 t_2_10-t_2_9 t_2_9-t_2_8 t_2_8-t_2_7 t_2_7-t_2_6 t_2_6-t_2_5 t_2_5-t_2_4 t_2_4-t_2_3 t_2_3-t_2_2 t_2_2-t_2_1 t_2_1-t_3_1 t_3_1-t_3_2 t_3_2-p_4_2 "/>
  </vehicle >
  <vehicle  id="116" departPos="base" departLane="best" depart="148.00" type="type1">
    <route edges="p_4_3-t_3_3 t_3_3-t_3_4 t_3_4-t_3_5 t_3_5-t_3_6 t_3_6-t_3_7 t_3_7-t_3_8 t_3_8-t_3_9 t_3_9-t_3_10 t_3_10-t_3_11 t_3_11-t_3_12 t_3_12-t_3_13 t_3_13-t_3_14 t_3_14-t_3_15 t_3_15-t_3_16 t_3_16-t_2_16 t_2_16-p_2_17 "/>
  </vehicle >
  <vehicle  id="117" departPos="base" departLane="best" depart="149.00" type="type1">
    <route edges="p_4_14-t_3_14 t_3_14-t_3_15 t_3_15-t_3_16 t_3_16-p_3_17 "/>
  </vehicle >
  <vehicle  id="118" departPos="base" departLane="best" depart="149.00" type="type1">
    <route edges="p_2_17-t_2_16 t_2_16-t_2_15 t_2_15-t_2_14 t_2_14-t_2_13 t_2_13-t_3_13 t_3_13-p_4_13 "/>
  </vehicle >
  <vehicle  id="119" departPos="base" departLane="best" depart="151.00" type="type1">
    <route edges="p_2_17-t_2_16 t_2_16-t_2_15 t_2_15-t_2_14 t_2_14-t_2_13 t_2_13-t_2_12 t_2_12-t_2_11 t_2_11-t_2_10 t_2_10-t_2_9 t_2_9-t_2_8 t_2_8-t_2_7 t_2_7-t_2_6 t_2_6-t_2_5 t_2_5-t_2_4 t_2_4-t_2_3 t_2_3-t_2_2 t_2_2-t_2_1 t_2_1-t_1_1 t_1_1-p_1_0 "/>
  </vehicle >
  <vehicle  id="120" departPos="base" departLane="best" depart="156.00" type="type1">