<routes>
  <vType id="type1" length="5" maxSpeed="11" accel="5" minGap="2.5" decel="10"/>
  <vType id="emergency1" length="5" accel="5" maxSpeed="20" minGap="2.5"  vClass="emergency" guiShape="emergency"/>
  <vType id="emergency2" length="5" accel="5" maxSpeed="20" minGap="2.5"  vClass="emergency" guiShape="firebrigade"/>
  <vType id="emergency3" length="5" accel="5" maxSpeed="20" minGap="2.5"  vClass="emergency" guiShape="police"/>
  <flow id="emergency1" departPos="base" departLane="best" from="p_0_5-t_1_5" to="t_5_1-p_6_1" begin="0" end="3000" vehsPerHour="15" type="emergency1"/>
  <flow id="emergency2" departPos="base" departLane="best" from="p_3_0-t_3_1" to="t_3_5-p_3_6" begin="0" end="3000" vehsPerHour="15" type="emergency2"/>
  <flow id="emergency3" departPos="base" departLane="best" from="p_6_3-t_5_3" to="t_1_1-p_0_1" begin="0" end="3000" vehsPerHour="15" type="emergency3"/>
  <flow id="f_0_0" departPos="base" departLane="best" from="p_0_1-t_1_1" to="t_5_5-p_6_5" begin="0" end="300" vehsPerHour="80" type="type1">
  </flow>
  <flow id="f_0_1" departPos="base" departLane="best" from="p_6_1-t_5_1" to="t_1_5-p_0_5" begin="0" end="300" vehsPerHour="80" type="type1">
  </flow>
  <flow id="f_0_2" departPos="base" departLane="best" from="p_1_0-t_1_1" to="t_5_5-p_5_6" begin="0" end="300" vehsPerHour="80" type="type1">
  </flow>
  <flow id="f_0_3" departPos="base" departLane="best" from="p_1_6-t_1_5" to="t_5_1-p_5_0" begin="0" end="300" vehsPerHour="80" type="type1">
  </flow>
  <flow id="f_0_4" departPos="base" departLane="best" from="p_0_2-t_1_2" to="t_5_4-p_6_4" begin="0" end="300" vehsPerHour="80" type="type1">
  </flow>
  <flow id="f_0_5" departPos="base" departLane="best" from="p_6_2-t_5_2" to="t_1_4-p_0_4" begin="0" end="300" vehsPerHour="80" type="type1">
  </flow>
  <flow id="f_0_6" departPos="base" departLane="best" from="p_2_0-t_2_1" to="t_4_5-p_4_6" begin="0" end="300" vehsPerHour="80" type="type1">
  </flow>
  <flow id="f_0_7" departPos="base" departLane="best" from="p_2_6-t_2_5" to="t_4_1-p_4_0" begin="0" end="300" vehsPerHour="80" type="type1">
  </flow>
  <flow id="f_0_8" departPos="base" departLane="best" from="p_0_3-t_1_3" to="t_5_3-p_6_3" begin="0" end="300" vehsPerHour="80" type="type1">
  </flow>
  <flow id="f_0_9" departPos="base" departLane="best" from="p_6_3-t_5_3" to="t_1_3-p_0_3" begin="0" end="300" vehsPerHour="80" type="type1">
  </flow>
  <flow id="f_0_10" departPos="base" departLane="best" from="p_3_0-t_3_1" to="t_3_5-p_3_6" begin="0" end="300" vehsPerHour="80" type="type1">
  </flow>
  <flow id="f_0_11" departPos="base" departLane="best" from="p_3_6-t_3_5" to="t_3_1-p_3_0" begin="0" end="300" vehsPerHour="80" type="type1">
  </flow>
  <flow id="f_0_12" departPos="base" departLane="best" from="p_0_4-t_1_4" to="t_5_2-p_6_2" begin="0" end="300" vehsPerHour="80" type="type1">
  </flow>
  <flow id="f_0_13" departPos="base" departLane="best" from="p_6_4-t_5_4" to="t_1_2-p_0_2" begin="0" end="300" vehsPerHour="80" type="type1">
  </flow>
  <flow id="f_0_14" departPos="base" departLane="best" from="p_4_0-t_4_1" to="t_2_5-p_2_6" begin="0" end="300" vehsPerHour="80" type="type1">
  </flow>
  <flow id="f_0_15" departPos="base" departLane="best" from="p_4_6-t_4_5" to="t_2_1-p_2_0" begin="0" end="300" vehsPerHour="80" type="type1">
  </flow>
  <flow id="f_0_16" departPos="base" departLane="best" from="p_0_5-t_1_5" to="t_5_1-p_6_1" begin="0" end="300" vehsPerHour="80" type="type1">
  </flow>
  <flow id="f_0_17" departPos="base" departLane="best" from="p_6_5-t_5_5" to="t_1_1-p_0_1" begin="0" end="300" vehsPerHour="80" type="type1">
  </flow>
  <flow id="f_0_18" departPos="base" departLane="best" from="p_5_0-t_5_1" to="t_1_5-p_1_6" begin="0" end="300" vehsPerHour="80" type="type1">
  </flow>
  <flow id="f_0_19" departPos="base" departLane="best" from="p_5_6-t_5_5" to="t_1_1-p_1_0" begin="0" end="300" vehsPerHour="80" type="type1">
  </flow>
  <flow id="f_1_0" departPos="base" departLane="best" from="p_0_1-t_1_1" to="t_5_5-p_6_5" begin="300" end="600" vehsPerHour="120" type="type1">
  </flow>
  <flow id="f_1_1" departPos="base" departLane="best" from="p_6_1-t_5_1" to="t_1_5-p_0_5" begin="300" end="600" vehsPerHour="120" type="type1">
  </flow>
  <flow id="f_1_2" departPos="base" departLane="best" from="p_1_0-t_1_1" to="t_5_5-p_5_6" begin="300" end="600" vehsPerHour="120" type="type1">
  </flow>
  <flow id="f_1_3" departPos="base" departLane="best" from="p_1_6-t_1_5" to="t_5_1-p_5_0" begin="300" end="600" vehsPerHour="120" type="type1">
  </flow>
  <flow id="f_1_4" departPos="base" departLane="best" from="p_0_2-t_1_2" to="t_5_4-p_6_4" begin="300" end="600" vehsPerHour="120" type="type1">
  </flow>
  <flow id="f_1_5" departPos="base" departLane="best" from="p_6_2-t_5_2" to="t_1_4-p_0_4" begin="300" end="600" vehsPerHour="120" type="type1">
  </flow>
  <flow id="f_1_6" departPos="base" departLane="best" from="p_2_0-t_2_1" to="t_4_5-p_4_6" begin="300" end="600" vehsPerHour="120" type="type1">
  </flow>
  <flow id="f_1_7" departPos="base" departLane="best" from="p_2_6-t_2_5" to="t_4_1-p_4_0" begin="300" end="600" vehsPerHour="120" type="type1">
  </flow>
  <flow id="f_1_8" departPos="base" departLane="best" from="p_0_3-t_1_3" to="t_5_3-p_6_3" begin="300" end="600" vehsPerHour="120" type="type1">
  </flow>
  <flow id="f_1_9" departPos="base" departLane="best" from="p_6_3-t_5_3" to="t_1_3-p_0_3" begin="300" end="600" vehsPerHour="120" type="type1">
  </flow>
  <flow id="f_1_10" departPos="base" departLane="best" from="p_3_0-t_3_1" to="t_3_5-p_3_6" begin="300" end="600" vehsPerHour="120" type="type1">
  </flow>
  <flow id="f_1_11" departPos="base" departLane="best" from="p_3_6-t_3_5" to="t_3_1-p_3_0" begin="300" end="600" vehsPerHour="120" type="type1">
  </flow>
  <flow id="f_1_12" departPos="base" departLane="best" from="p_0_4-t_1_4" to="t_5_2-p_6_2" begin="300" end="600" vehsPerHour="120" type="type1">
  </flow>
  <flow id="f_1_13" departPos="base" departLane="best" from="p_6_4-t_5_4" to="t_1_2-p_0_2" begin="300" end="600" vehsPerHour="120" type="type1">
  </flow>
  <flow id="f_1_14" departPos="base" departLane="best" from="p_4_0-t_4_1" to="t_2_5-p_2_6" begin="300" end="600" vehsPerHour="120" type="type1">
  </flow>
  <flow id="f_1_15" departPos="base" departLane="best" from="p_4_6-t_4_5" to="t_2_1-p_2_0" begin="300" end="600" vehsPerHour="120" type="type1">
  </flow>
  <flow id="f_1_16" departPos="base" departLane="best" from="p_0_5-t_1_5" to="t_5_1-p_6_1" begin="300" end="600" vehsPerHour="120" type="type1">
  </flow>
  <flow id="f_1_17" departPos="base" departLane="best" from="p_6_5-t_5_5" to="t_1_1-p_0_1" begin="300" end="600" vehsPerHour="120" type="type1">
  </flow>
  <flow id="f_1_18" departPos="base" departLane="best" from="p_5_0-t_5_1" to="t_1_5-p_1_6" begin="300" end="600" vehsPerHour="120" type="type1">
  </flow>
  <flow id="f_1_19" departPos="base" departLane="best" from="p_5_6-t_5_5" to="t_1_1-p_1_0" begin="300" end="600" vehsPerHour="120" type="type1">
  </flow>
  <flow id="f_2_0" departPos="base" departLane="best" from="p_0_1-t_1_1" to="t_5_5-p_6_5" begin="600" end="900" vehsPerHour="160" type="type1">
  </flow>
  <flow id="f_2_1" departPos="base" departLane="best" from="p_6_1-t_5_1" to="t_1_5-p_0_5" begin="600" end="900" vehsPerHour="160" type="type1">
  </flow>
  <flow id="f_2_2" departPos="base" departLane="best" from="p_1_0-t_1_1" to="t_5_5-p_5_6" begin="600" end="900" vehsPerHour="160" type="type1">
  </flow>
  <flow id="f_2_3" departPos="base" departLane="best" from="p_1_6-t_1_5" to="t_5_1-p_5_0" begin="600" end="900" vehsPerHour="160" type="type1">
  </flow>
  <flow id="f_2_4" departPos="base" departLane="best" from="p_0_2-t_1_2" to="t_5_4-p_6_4" begin="600" end="900" vehsPerHour="160" type="type1">
  </flow>
  <flow id="f_2_5" departPos="base" departLane="best" from="p_6_2-t_5_2" to="t_1_4-p_0_4" begin="600" end="900" vehsPerHour="160" type="type1">
  </flow>
  <flow id="f_2_6" departPos="base" departLane="best" from="p_2_0-t_2_1" to="t_4_5-p_4_6" begin="600" end="900" vehsPerHour="160" type="type1">
  </flow>
  <flow id="f_2_7" departPos="base" departLane="best" from="p_2_6-t_2_5" to="t_4_1-p_4_0" begin="600" end="900" vehsPerHour="160" type="type1">
  </flow>
  <flow id="f_2_8" departPos="base" departLane="best" from="p_0_3-t_1_3" to="t_5_3-p_6_3" begin="600" end="900" vehsPerHour="160" type="type1">
  </flow>
  <flow id="f_2_9" departPos="base" departLane="best" from="p_6_3-t_5_3" to="t_1_3-p_0_3" begin="600" end="900" vehsPerHour="160" type="type1">
  </flow>
  <flow id="f_2_10" departPos="base" departLane="best" from="p_3_0-t_3_1" to="t_3_5-p_3_6" begin="600" end="900" vehsPerHour="160" type="type1">
  </flow>
  <flow id="f_2_11" departPos="base" departLane="best" from="p_3_6-t_3_5" to="t_3_1-p_3_0" begin="600" end="900" vehsPerHour="160" type="type1">
  </flow>
  <flow id="f_2_12" departPos="base" departLane="best" from="p_0_4-t_1_4" to="t_5_2-p_6_2" begin="600" end="900" vehsPerHour="160" type="type1">
  </flow>
  <flow id="f_2_13" departPos="base" departLane="best" from="p_6_4-t_5_4" to="t_1_2-p_0_2" begin="600" end="900" vehsPerHour="160" type="type1">
  </flow>
  <flow id="f_2_14" departPos="base" departLane="best" from="p_4_0-t_4_1" to="t_2_5-p_2_6" begin="600" end="900" vehsPerHour="160" type="type1">
  </flow>
  <flow id="f_2_15" departPos="base" departLane="best" from="p_4_6-t_4_5" to="t_2_1-p_2_0" begin="600" end="900" vehsPerHour="160" type="type1">
  </flow>
  <flow id="f_2_16" departPos="base" departLane="best" from="p_0_5-t_1_5" to="t_5_1-p_6_1" begin="600" end="900" vehsPerHour="160" type="type1">
  </flow>
  <flow id="f_2_17" departPos="base" departLane="best" from="p_6_5-t_5_5" to="t_1_1-p_0_1" begin="600" end="900" vehsPerHour="160" type="type1">
  </flow>
  <flow id="f_2_18" departPos="base" departLane="best" from="p_5_0-t_5_1" to="t_1_5-p_1_6" begin="600" end="900" vehsPerHour="160" type="type1">
  </flow>
  <flow id="f_2_19" departPos="base" departLane="best" from="p_5_6-t_5_5" to="t_1_1-p_1_0" begin="600" end="900" vehsPerHour="160" type="type1">
  </flow>
  <flow id="f_3_0" departPos="base" departLane="best" from="p_0_1-t_1_1" to="t_5_5-p_6_5" begin="900" end="1200" vehsPerHour="180" type="type1">
  </flow>
  <flow id="f_3_1" departPos="base" departLane="best" from="p_6_1-t_5_1" to="t_1_5-p_0_5" begin="900" end="1200" vehsPerHour="180" type="type1">
  </flow>
  <flow id="f_3_2" departPos="base" departLane="best" from="p_1_0-t_1_1" to="t_5_5-p_5_6" begin="900" end="1200" vehsPerHour="180" type="type1">
  </flow>
  <flow id="f_3_3" departPos="base" departLane="best" from="p_1_6-t_1_5" to="t_5_1-p_5_0" begin="900" end="1200" vehsPerHour="180" type="type1">
  </flow>
  <flow id="f_3_4" departPos="base" departLane="best" from="p_0_2-t_1_2" to="t_5_4-p_6_4" begin="900" end="1200" vehsPerHour="180" type="type1">
  </flow>
  <flow id="f_3_5" departPos="base" departLane="best" from="p_6_2-t_5_2" to="t_1_4-p_0_4" begin="900" end="1200" vehsPerHour="180" type="type1">
  </flow>
  <flow id="f_3_6" departPos="base" departLane="best" from="p_2_0-t_2_1" to="t_4_5-p_4_6" begin="900" end="1200" vehsPerHour="180" type="type1">
  </flow>
  <flow id="f_3_7" departPos="base" departLane="best" from="p_2_6-t_2_5" to="t_4_1-p_4_0" begin="900" end="1200" vehsPerHour="180" type="type1">
  </flow>
  <flow id="f_3_8" departPos="base" departLane="best" from="p_0_3-t_1_3" to="t_5_3-p_6_3" begin="900" end="1200" vehsPerHour="180" type="type1">
  </flow>
  <flow id="f_3_9" departPos="base" departLane="best" from="p_6_3-t_5_3" to="t_1_3-p_0_3" begin="900" end="1200" vehsPerHour="180" type="type1">
  </flow>
  <flow id="f_3_10" departPos="base" departLane="best" from="p_3_0-t_3_1" to="t_3_5-p_3_6" begin="900" end="1200" vehsPerHour="180" type="type1">
  </flow>
  <flow id="f_3_11" departPos="base" departLane="best" from="p_3_6-t_3_5" to="t_3_1-p_3_0" begin="900" end="1200" vehsPerHour="180" type="type1">
  </flow>
  <flow id="f_3_12" departPos="base" departLane="best" from="p_0_4-t_1_4" to="t_5_2-p_6_2" begin="900" end="1200" vehsPerHour="180" type="type1">
  </flow>
  <flow id="f_3_13" departPos="base" departLane="best" from="p_6_4-t_5_4" to="t_1_2-p_0_2" begin="900" end="1200" vehsPerHour="180" type="type1">
  </flow>
  <flow id="f_3_14" departPos="base" departLane="best" from="p_4_0-t_4_1" to="t_2_5-p_2_6" begin="900" end="1200" vehsPerHour="180" type="type1">
  </flow>
  <flow id="f_3_15" departPos="base" departLane="best" from="p_4_6-t_4_5" to="t_2_1-p_2_0" begin="900" end="1200" vehsPerHour="180" type="type1">
  </flow>
  <flow id="f_3_16" departPos="base" departLane="best" from="p_0_5-t_1_5" to="t_5_1-p_6_1" begin="900" end="1200" vehsPerHour="180" type="type1">
  </flow>
  <flow id="f_3_17" departPos="base" departLane="best" from="p_6_5-t_5_5" to="t_1_1-p_0_1" begin="900" end="1200" vehsPerHour="180" type="type1">
  </flow>
  <flow id="f_3_18" departPos="base" departLane="best" from="p_5_0-t_5_1" to="t_1_5-p_1_6" begin="900" end="1200" vehsPerHour="180" type="type1">
  </flow>
  <flow id="f_3_19" departPos="base" departLane="best" from="p_5_6-t_5_5" to="t_1_1-p_1_0" begin="900" end="1200" vehsPerHour="180" type="type1">
  </flow>
  <flow id="f_4_0" departPos="base" departLane="best" from="p_0_1-t_1_1" to="t_5_5-p_6_5" begin="1200" end="1500" vehsPerHour="200" type="type1">
  </flow>
  <flow id="f_4_1" departPos="base" departLane="best" from="p_6_1-t_5_1" to="t_1_5-p_0_5" begin="1200" end="1500" vehsPerHour="200" type="type1">
  </flow>
  <flow id="f_4_2" departPos="base" departLane="best" from="p_1_0-t_1_1" to="t_5_5-p_5_6" begin="1200" end="1500" vehsPerHour="200" type="type1">
  </flow>
  <flow id="f_4_3" departPos="base" departLane="best" from="p_1_6-t_1_5" to="t_5_1-p_5_0" begin="1200" end="1500" vehsPerHour="200" type="type1">
  </flow>
  <flow id="f_4_4" departPos="base" departLane="best" from="p_0_2-t_1_2" to="t_5_4-p_6_4" begin="1200" end="1500" vehsPerHour="200" type="type1">
  </flow>
  <flow id="f_4_5" departPos="base" departLane="best" from="p_6_2-t_5_2" to="t_1_4-p_0_4" begin="1200" end="1500" vehsPerHour="200" type="type1">
  </flow>
  <flow id="f_4_6" departPos="base" departLane="best" from="p_2_0-t_2_1" to="t_4_5-p_4_6" begin="1200" end="1500" vehsPerHour="200" type="type1">
  </flow>
  <flow id="f_4_7" departPos="base" departLane="best" from="p_2_6-t_2_5" to="t_4_1-p_4_0" begin="1200" end="1500" vehsPerHour="200" type="type1">
  </flow>
  <flow id="f_4_8" departPos="base" departLane="best" from="p_0_3-t_1_3" to="t_5_3-p_6_3" begin="1200" end="1500" vehsPerHour="200" type="type1">
  </flow>
  <flow id="f_4_9" departPos="base" departLane="best" from="p_6_3-t_5_3" to="t_1_3-p_0_3" begin="1200" end="1500" vehsPerHour="200" type="type1">
  </flow>
  <flow id="f_4_10" departPos="base" departLane="best" from="p_3_0-t_3_1" to="t_3_5-p_3_6" begin="1200" end="1500" vehsPerHour="200" type="type1">
  </flow>
  <flow id="f_4_11" departPos="base" departLane="best" from="p_3_6-t_3_5" to="t_3_1-p_3_0" begin="1200" end="1500" vehsPerHour="200" type="type1">
  </flow>
  <flow id="f_4_12" departPos="base" departLane="best" from="p_0_4-t_1_4" to="t_5_2-p_6_2" begin="1200" end="1500" vehsPerHour="200" type="type1">
  </flow>
  <flow id="f_4_13" departPos="base" departLane="best" from="p_6_4-t_5_4" to="t_1_2-p_0_2" begin="1200" end="1500" vehsPerHour="200" type="type1">
  </flow>
  <flow id="f_4_14" departPos="base" departLane="best" from="p_4_0-t_4_1" to="t_2_5-p_2_6" begin="1200" end="1500" vehsPerHour="200" type="type1">
  </flow>
  <flow id="f_4_15" departPos="base" departLane="best" from="p_4_6-t_4_5" to="t_2_1-p_2_0" begin="1200" end="1500" vehsPerHour="200" type="type1">
  </flow>
  <flow id="f_4_16" departPos="base" departLane="best" from="p_0_5-t_1_5" to="t_5_1-p_6_1" begin="1200" end="1500" vehsPerHour="200" type="type1">
  </flow>
  <flow id="f_4_17" departPos="base" departLane="best" from="p_6_5-t_5_5" to="t_1_1-p_0_1" begin="1200" end="1500" vehsPerHour="200" type="type1">
  </flow>
  <flow id="f_4_18" departPos="base" departLane="best" from="p_5_0-t_5_1" to="t_1_5-p_1_6" begin="1200" end="1500" vehsPerHour="200" type="type1">
  </flow>
  <flow id="f_4_19" departPos="base" departLane="best" from="p_5_6-t_5_5" to="t_1_1-p_1_0" begin="1200" end="1500" vehsPerHour="200" type="type1">
  </flow>
  <flow id="f_5_0" departPos="base" departLane="best" from="p_0_1-t_1_1" to="t_5_5-p_6_5" begin="1500" end="1800" vehsPerHour="180" type="type1">
  </flow>
  <flow id="f_5_1" departPos="base" departLane="best" from="p_6_1-t_5_1" to="t_1_5-p_0_5" begin="1500" end="1800" vehsPerHour="180" type="type1">
  </flow>
  <flow id="f_5_2" departPos="base" departLane="best" from="p_1_0-t_1_1" to="t_5_5-p_5_6" begin="1500" end="1800" vehsPerHour="180" type="type1">
  </flow>
  <flow id="f_5_3" departPos="base" departLane="best" from="p_1_6-t_1_5" to="t_5_1-p_5_0" begin="1500" end="1800" vehsPerHour="180" type="type1">
  </flow>
  <flow id="f_5_4" departPos="base" departLane="best" from="p_0_2-t_1_2" to="t_5_4-p_6_4" begin="1500" end="1800" vehsPerHour="180" type="type1">
  </flow>
  <flow id="f_5_5" departPos="base" departLane="best" from="p_6_2-t_5_2" to="t_1_4-p_0_4" begin="1500" end="1800" vehsPerHour="180" type="type1">
  </flow>
  <flow id="f_5_6" departPos="base" departLane="best" from="p_2_0-t_2_1" to="t_4_5-p_4_6" begin="1500" end="1800" vehsPerHour="180" type="type1">
  </flow>
  <flow id="f_5_7" departPos="base" departLane="best" from="p_2_6-t_2_5" to="t_4_1-p_4_0" begin="1500" end="1800" vehsPerHour="180" type="type1">
  </flow>
  <flow id="f_5_8" departPos="base" departLane="best" from="p_0_3-t_1_3" to="t_5_3-p_6_3" begin="1500" end="1800" vehsPerHour="180" type="type1">
  </flow>
  <flow id="f_5_9" departPos="base" departLane="best" from="p_6_3-t_5_3" to="t_1_3-p_0_3" begin="1500" end="1800" vehsPerHour="180" type="type1">
  </flow>
  <flow id="f_5_10" departPos="base" departLane="best" from="p_3_0-t_3_1" to="t_3_5-p_3_6" begin="1500" end="1800" vehsPerHour="180" type="type1">
  </flow>
  <flow id="f_5_11" departPos="base" departLane="best" from="p_3_6-t_3_5" to="t_3_1-p_3_0" begin="1500" end="1800" vehsPerHour="180" type="type1">
  </flow>
  <flow id="f_5_12" departPos="base" departLane="best" from="p_0_4-t_1_4" to="t_5_2-p_6_2" begin="1500" end="1800" vehsPerHour="180" type="type1">
  </flow>
  <flow id="f_5_13" departPos="base" departLane="best" from="p_6_4-t_5_4" to="t_1_2-p_0_2" begin="1500" end="1800" vehsPerHour="180" type="type1">
  </flow>
  <flow id="f_5_14" departPos="base" departLane="best" from="p_4_0-t_4_1" to="t_2_5-p_2_6" begin="1500" end="1800" vehsPerHour="180" type="type1">
  </flow>
  <flow id="f_5_15" departPos="base" departLane="best" from="p_4_6-t_4_5" to="t_2_1-p_2_0" begin="1500" end="1800" vehsPerHour="180" type="type1">
  </flow>
  <flow id="f_5_16" departPos="base" departLane="best" from="p_0_5-t_1_5" to="t_5_1-p_6_1" begin="1500" end="1800" vehsPerHour="180" type="type1">
  </flow>
  <flow id="f_5_17" departPos="base" departLane="best" from="p_6_5-t_5_5" to="t_1_1-p_0_1" begin="1500" end="1800" vehsPerHour="180" type="type1">
  </flow>
  <flow id="f_5_18" departPos="base" departLane="best" from="p_5_0-t_5_1" to="t_1_5-p_1_6" begin="1500" end="1800" vehsPerHour="180" type="type1">
  </flow>
  <flow id="f_5_19" departPos="base" departLane="best" from="p_5_6-t_5_5" to="t_1_1-p_1_0" begin="1500" end="1800" vehsPerHour="180" type="type1">
  </flow>
  <flow id="f_6_0" departPos="base" departLane="best" from="p_0_1-t_1_1" to="t_5_5-p_6_5" begin="1800" end="2100" vehsPerHour="160" type="type1">
  </flow>
  <flow id="f_6_1" departPos="base" departLane="best" from="p_6_1-t_5_1" to="t_1_5-p_0_5" begin="1800" end="2100" vehsPerHour="160" type="type1">
  </flow>
  <flow id="f_6_2" departPos="base" departLane="best" from="p_1_0-t_1_1" to="t_5_5-p_5_6" begin="1800" end="2100" vehsPerHour="160" type="type1">
  </flow>
  <flow id="f_6_3" departPos="base" departLane="best" from="p_1_6-t_1_5" to="t_5_1-p_5_0" begin="1800" end="2100" vehsPerHour="160" type="type1">
  </flow>
  <flow id="f_6_4" departPos="base" departLane="best" from="p_0_2-t_1_2" to="t_5_4-p_6_4" begin="1800" end="2100" vehsPerHour="160" type="type1">
  </flow>
  <flow id="f_6_5" departPos="base" departLane="best" from="p_6_2-t_5_2" to="t_1_4-p_0_4" begin="1800" end="2100" vehsPerHour="160" type="type1">
  </flow>
  <flow id="f_6_6" departPos="base" departLane="best" from="p_2_0-t_2_1" to="t_4_5-p_4_6" begin="1800" end="2100" vehsPerHour="160" type="type1">
  </flow>
  <flow id="f_6_7" departPos="base" departLane="best" from="p_2_6-t_2_5" to="t_4_1-p_4_0" begin="1800" end="2100" vehsPerHour="160" type="type1">
  </flow>
  <flow id="f_6_8" departPos="base" departLane="best" from="p_0_3-t_1_3" to="t_5_3-p_6_3" begin="1800" end="2100" vehsPerHour="160" type="type1">
  </flow>
  <flow id="f_6_9" departPos="base" departLane="best" from="p_6_3-t_5_3" to="t_1_3-p_0_3" begin="1800" end="2100" vehsPerHour="160" type="type1">
  </flow>
  <flow id="f_6_10" departPos="base" departLane="best" from="p_3_0-t_3_1" to="t_3_5-p_3_6" begin="1800" end="2100" vehsPerHour="160" type="type1">
  </flow>
  <flow id="f_6_11" departPos="base" departLane="best" from="p_3_6-t_3_5" to="t_3_1-p_3_0" begin="1800" end="2100" vehsPerHour="160" type="type1">
  </flow>
  <flow id="f_6_12" departPos="base" departLane="best" from="p_0_4-t_1_4" to="t_5_2-p_6_2" begin="1800" end="2100" vehsPerHour="160" type="type1">
  </flow>
  <flow id="f_6_13" departPos="base" departLane="best" from="p_6_4-t_5_4" to="t_1_2-p_0_2" begin="1800" end="2100" vehsPerHour="160" type="type1">
  </flow>
  <flow id="f_6_14" departPos="base" departLane="best" from="p_4_0-t_4_1" to="t_2_5-p_2_6" begin="1800" end="2100" vehsPerHour="160" type="type1">
  </flow>
  <flow id="f_6_15" departPos="base" departLane="best" from="p_4_6-t_4_5" to="t_2_1-p_2_0" begin="1800" end="2100" vehsPerHour="160" type="type1">
  </flow>
  <flow id="f_6_16" departPos="base" departLane="best" from="p_0_5-t_1_5" to="t_5_1-p_6_1" begin="1800" end="2100" vehsPerHour="160" type="type1">
  </flow>
  <flow id="f_6_17" departPos="base" departLane="best" from="p_6_5-t_5_5" to="t_1_1-p_0_1" begin="1800" end="2100" vehsPerHour="160" type="type1">
  </flow>
  <flow id="f_6_18" departPos="base" departLane="best" from="p_5_0-t_5_1" to="t_1_5-p_1_6" begin="1800" end="2100" vehsPerHour="160" type="type1">
  </flow>
  <flow id="f_6_19" departPos="base" departLane="best" from="p_5_6-t_5_5" to="t_1_1-p_1_0" begin="1800" end="2100" vehsPerHour="160" type="type1">
  </flow>
  <flow id="f_7_0" departPos="base" departLane="best" from="p_0_1-t_1_1" to="t_5_5-p_6_5" begin="2100" end="2400" vehsPerHour="120" type="type1">
  </flow>
  <flow id="f_7_1" departPos="base" departLane="best" from="p_6_1-t_5_1" to="t_1_5-p_0_5" begin="2100" end="2400" vehsPerHour="120" type="type1">
  </flow>
  <flow id="f_7_2" departPos="base" departLane="best" from="p_1_0-t_1_1" to="t_5_5-p_5_6" begin="2100" end="2400" vehsPerHour="120" type="type1">
  </flow>
  <flow id="f_7_3" departPos="base" departLane="best" from="p_1_6-t_1_5" to="t_5_1-p_5_0" begin="2100" end="2400" vehsPerHour="120" type="type1">
  </flow>
  <flow id="f_7_4" departPos="base" departLane="best" from="p_0_2-t_1_2" to="t_5_4-p_6_4" begin="2100" end="2400" vehsPerHour="120" type="type1">
  </flow>
  <flow id="f_7_5" departPos="base" departLane="best" from="p_6_2-t_5_2" to="t_1_4-p_0_4" begin="2100" end="2400" vehsPerHour="120" type="type1">
  </flow>
  <flow id="f_7_6" departPos="base" departLane="best" from="p_2_0-t_2_1" to="t_4_5-p_4_6" begin="2100" end="2400" vehsPerHour="120" type="type1">
  </flow>
  <flow id="f_7_7" departPos="base" departLane="best" from="p_2_6-t_2_5" to="t_4_1-p_4_0" begin="2100" end="2400" vehsPerHour="120" type="type1">
  </flow>
  <flow id="f_7_8" departPos="base" departLane="best" from="p_0_3-t_1_3" to="t_5_3-p_6_3" begin="2100" end="2400" vehsPerHour="120" type="type1">
  </flow>
  <flow id="f_7_9" departPos="base" departLane="best" from="p_6_3-t_5_3" to="t_1_3-p_0_3" begin="2100" end="2400" vehsPerHour="120" type="type1">
  </flow>
  <flow id="f_7_10" departPos="base" departLane="best" from="p_3_0-t_3_1" to="t_3_5-p_3_6" begin="2100" end="2400" vehsPerHour="120" type="type1">
  </flow>
  <flow id="f_7_11" departPos="base" departLane="best" from="p_3_6-t_3_5" to="t_3_1-p_3_0" begin="2100" end="2400" vehsPerHour="120" type="type1">
  </flow>
  <flow id="f_7_12" departPos="base" departLane="best" from="p_0_4-t_1_4" to="t_5_2-p_6_2" begin="2100" end="2400" vehsPerHour="120" type="type1">
  </flow>
  <flow id="f_7_13" departPos="base" departLane="best" from="p_6_4-t_5_4" to="t_1_2-p_0_2" begin="2100" end="2400" vehsPerHour="120" type="type1">
  </flow>
  <flow id="f_7_14" departPos="base" departLane="best" from="p_4_0-t_4_1" to="t_2_5-p_2_6" begin="2100" end="2400" vehsPerHour="120" type="type1">
  </flow>
  <flow id="f_7_15" departPos="base" departLane="best" from="p_4_6-t_4_5" to="t_2_1-p_2_0" begin="2100" end="2400" vehsPerHour="120" type="type1">
  </flow>
  <flow id="f_7_16" departPos="base" departLane="best" from="p_0_5-t_1_5" to="t_5_1-p_6_1" begin="2100" end="2400" vehsPerHour="120" type="type1">
  </flow>
  <flow id="f_7_17" departPos="base" departLane="best" from="p_6_5-t_5_5" to="t_1_1-p_0_1" begin="2100" end="2400" vehsPerHour="120" type="type1">
  </flow>
  <flow id="f_7_18" departPos="base" departLane="best" from="p_5_0-t_5_1" to="t_1_5-p_1_6" begin="2100" end="2400" vehsPerHour="120" type="type1">
  </flow>
  <flow id="f_7_19" departPos="base" departLane="best" from="p_5_6-t_5_5" to="t_1_1-p_1_0" begin="2100" end="2400" vehsPerHour="120" type="type1">
  </flow>
  <flow id="f_8_0" departPos="base" departLane="best" from="p_0_1-t_1_1" to="t_5_5-p_6_5" begin="2400" end="2700" vehsPerHour="80" type="type1">
  </flow>
  <flow id="f_8_1" departPos="base" departLane="best" from="p_6_1-t_5_1" to="t_1_5-p_0_5" begin="2400" end="2700" vehsPerHour="80" type="type1">
  </flow>
  <flow id="f_8_2" departPos="base" departLane="best" from="p_1_0-t_1_1" to="t_5_5-p_5_6" begin="2400" end="2700" vehsPerHour="80" type="type1">
  </flow>
  <flow id="f_8_3" departPos="base" departLane="best" from="p_1_6-t_1_5" to="t_5_1-p_5_0" begin="2400" end="2700" vehsPerHour="80" type="type1">
  </flow>
  <flow id="f_8_4" departPos="base" departLane="best" from="p_0_2-t_1_2" to="t_5_4-p_6_4" begin="2400" end="2700" vehsPerHour="80" type="type1">
  </flow>
  <flow id="f_8_5" departPos="base" departLane="best" from="p_6_2-t_5_2" to="t_1_4-p_0_4" begin="2400" end="2700" vehsPerHour="80" type="type1">
  </flow>
  <flow id="f_8_6" departPos="base" departLane="best" from="p_2_0-t_2_1" to="t_4_5-p_4_6" begin="2400" end="2700" vehsPerHour="80" type="type1">
  </flow>
  <flow id="f_8_7" departPos="base" departLane="best" from="p_2_6-t_2_5" to="t_4_1-p_4_0" begin="2400" end="2700" vehsPerHour="80" type="type1">
  </flow>
  <flow id="f_8_8" departPos="base" departLane="best" from="p_0_3-t_1_3" to="t_5_3-p_6_3" begin="2400" end="2700" vehsPerHour="80" type="type1">
  </flow>
  <flow id="f_8_9" departPos="base" departLane="best" from="p_6_3-t_5_3" to="t_1_3-p_0_3" begin="2400" end="2700" vehsPerHour="80" type="type1">
  </flow>
  <flow id="f_8_10" departPos="base" departLane="best" from="p_3_0-t_3_1" to="t_3_5-p_3_6" begin="2400" end="2700" vehsPerHour="80" type="type1">
  </flow>
  <flow id="f_8_11" departPos="base" departLane="best" from="p_3_6-t_3_5" to="t_3_1-p_3_0" begin="2400" end="2700" vehsPerHour="80" type="type1">
  </flow>
  <flow id="f_8_12" departPos="base" departLane="best" from="p_0_4-t_1_4" to="t_5_2-p_6_2" begin="2400" end="2700" vehsPerHour="80" type="type1">
  </flow>
  <flow id="f_8_13" departPos="base" departLane="best" from="p_6_4-t_5_4" to="t_1_2-p_0_2" begin="2400" end="2700" vehsPerHour="80" type="type1">
  </flow>
  <flow id="f_8_14" departPos="base" departLane="best" from="p_4_0-t_4_1" to="t_2_5-p_2_6" begin="2400" end="2700" vehsPerHour="80" type="type1">
  </flow>
  <flow id="f_8_15" departPos="base" departLane="best" from="p_4_6-t_4_5" to="t_2_1-p_2_0" begin="2400" end="2700" vehsPerHour="80" type="type1">
  </flow>
  <flow id="f_8_16" departPos="base" departLane="best" from="p_0_5-t_1_5" to="t_5_1-p_6_1" begin="2400" end="2700" vehsPerHour="80" type="type1">
  </flow>
  <flow id="f_8_17" departPos="base" departLane="best" from="p_6_5-t_5_5" to="t_1_1-p_0_1" begin="2400" end="2700" vehsPerHour="80" type="type1">
  </flow>
  <flow id="f_8_18" departPos="base" departLane="best" from="p_5_0-t_5_1" to="t_1_5-p_1_6" begin="2400" end="2700" vehsPerHour="80" type="type1">
  </flow>
  <flow id="f_8_19" departPos="base" departLane="best" from="p_5_6-t_5_5" to="t_1_1-p_1_0" begin="2400" end="2700" vehsPerHour="80" type="type1">
  </flow>
  <flow id="f_9_0" departPos="base" departLane="best" from="p_0_1-t_1_1" to="t_5_5-p_6_5" begin="2700" end="3000" vehsPerHour="40" type="type1">
  </flow>
  <flow id="f_9_1" departPos="base" departLane="best" from="p_6_1-t_5_1" to="t_1_5-p_0_5" begin="2700" end="3000" vehsPerHour="40" type="type1">
  </flow>
  <flow id="f_9_2" departPos="base" departLane="best" from="p_1_0-t_1_1" to="t_5_5-p_5_6" begin="2700" end="3000" vehsPerHour="40" type="type1">
  </flow>
  <flow id="f_9_3" departPos="base" departLane="best" from="p_1_6-t_1_5" to="t_5_1-p_5_0" begin="2700" end="3000" vehsPerHour="40" type="type1">
  </flow>
  <flow id="f_9_4" departPos="base" departLane="best" from="p_0_2-t_1_2" to="t_5_4-p_6_4" begin="2700" end="3000" vehsPerHour="40" type="type1">
  </flow>
  <flow id="f_9_5" departPos="base" departLane="best" from="p_6_2-t_5_2" to="t_1_4-p_0_4" begin="2700" end="3000" vehsPerHour="40" type="type1">
  </flow>
  <flow id="f_9_6" departPos="base" departLane="best" from="p_2_0-t_2_1" to="t_4_5-p_4_6" begin="2700" end="3000" vehsPerHour="40" type="type1">
  </flow>