<edges>
  <edge id="t_1_1-t_1_2" from="t_1_1" to="t_1_2" type="b"/>
  <edge id="t_1_1-p_1_0" from="t_1_1" to="p_1_0" type="b"/>
  <edge id="t_1_1-t_2_1" from="t_1_1" to="t_2_1" type="a"/>
  <edge id="t_1_1-p_0_1" from="t_1_1" to="p_0_1" type="a"/>
  <edge id="t_1_2-t_1_3" from="t_1_2" to="t_1_3" type="b"/>
  <edge id="t_1_2-t_1_1" from="t_1_2" to="t_1_1" type="b"/>
  <edge id="t_1_2-t_2_2" from="t_1_2" to="t_2_2" type="a"/>
  <edge id="t_1_2-p_0_2" from="t_1_2" to="p_0_2" type="a"/>
  <edge id="t_1_3-t_1_4" from="t_1_3" to="t_1_4" type="b"/>
  <edge id="t_1_3-t_1_2" from="t_1_3" to="t_1_2" type="b"/>
  <edge id="t_1_3-t_2_3" from="t_1_3" to="t_2_3" type="a"/>
  <edge id="t_1_3-p_0_3" from="t_1_3" to="p_0_3" type="a"/>
  <edge id="t_1_4-t_1_5" from="t_1_4" to="t_1_5" type="b"/>
  <edge id="t_1_4-t_1_3" from="t_1_4" to="t_1_3" type="b"/>
  <edge id="t_1_4-t_2_4" from="t_1_4" to="t_2_4" type="a"/>
  <edge id="t_1_4-p_0_4" from="t_1_4" to="p_0_4" type="a"/>
  <edge id="t_1_5-p_1_6" from="t_1_5" to="p_1_6" type="b"/>
  <edge id="t_1_5-t_1_4" from="t_1_5" to="t_1_4" type="b"/>
  <edge id="t_1_5-t_2_5" from="t_1_5" to="t_2_5" type="a"/>
  <edge id="t_1_5-p_0_5" from="t_1_5" to="p_0_5" type="a"/>
  <edge id="t_2_1-t_2_2" from="t_2_1" to="t_2_2" type="b"/>
  <edge id="t_2_1-p_2_0" from="t_2_1" to="p_2_0" type="b"/>
  <edge id="t_2_1-t_3_1" from="t_2_1" to="t_3_1" type="a"/>
  <edge id="t_2_1-t_1_1" from="t_2_1" to="t_1_1" type="a"/>
  <edge id="t_2_2-t_2_3" from="t_2_2" to="t_2_3" type="b"/>
  <edge id="t_2_2-t_2_1" from="t_2_2" to="t_2_1" type="b"/>
  <edge id="t_2_2-t_3_2" from="t_2_2" to="t_3_2" type="a"/>
  <edge id="t_2_2-t_1_2" from="t_2_2" to="t_1_2" type="a"/>
  <edge id="t_2_3-t_2_4" from="t_2_3" to="t_2_4" type="b"/>
  <edge id="t_2_3-t_2_2" from="t_2_3" to="t_2_2" type="b"/>
  <edge id="t_2_3-t_3_3" from="t_2_3" to="t_3_3" type="a"/>
  <edge id="t_2_3-t_1_3" from="t_2_3" to="t_1_3" type="a"/>
  <edge id="t_2_4-t_2_5" from="t_2_4" to="t_2_5" type="b"/>
  <edge id="t_2_4-t_2_3" from="t_2_4" to="t_2_3" type="b"/>
  <edge id="t_2_4-t_3_4" from="t_2_4" to="t_3_4" type="a"/>
  <edge id="t_2_4-t_1_4" from="t_2_4" to="t_1_4" type="a"/>
  <edge id="t_2_5-p_2_6" from="t_2_5" to="p_2_6" type="b"/>
  <edge id="t_2_5-t_2_4" from="t_2_5" to="t_2_4" type="b"/>
  <edge id="t_2_5-t_3_5" from="t_2_5" to="t_3_5" type="a"/>
  <edge id="t_2_5-t_1_5" from="t_2_5" to="t_1_5" type="a"/>
  <edge id="t_3_1-t_3_2" from="t_3_1" to="t_3_2" type="b"/>
  <edge id="t_3_1-p_3_0" from="t_3_1" to="p_3_0" type="b"/>
  <edge id="t_3_1-t_4_1" from="t_3_1" to="t_4_1" type="a"/>
  <edge id="t_3_1-t_2_1" from="t_3_1" to="t_2_1" type="a"/>
  <edge id="t_3_2-t_3_3" from="t_3_2" to="t_3_3" type="b"/>
  <edge id="t_3_2-t_3_1" from="t_3_2" to="t_3_1" type="b"/>
  <edge id="t_3_2-t_4_2" from="t_3_2" to="t_4_2" type="a"/>
  <edge id="t_3_2-t_2_2" from="t_3_2" to="t_2_2" type="a"/>
  <edge id="t_3_3-t_3_4" from="t_3_3" to="t_3_4" type="b"/>
  <edge id="t_3_3-t_3_2" from="t_3_3" to="t_3_2" type="b"/>
  <edge id="t_3_3-t_4_3" from="t_3_3" to="t_4_3" type="a"/>
  <edge id="t_3_3-t_2_3" from="t_3_3" to="t_2_3" type="a"/>
  <edge id="t_3_4-t_3_5" from="t_3_4" to="t_3_5" type="b"/>
  <edge id="t_3_4-t_3_3" from="t_3_4" to="t_3_3" type="b"/>
  <edge id="t_3_4-t_4_4" from="t_3_4" to="t_4_4" type="a"/>
  <edge id="t_3_4-t_2_4" from="t_3_4" to="t_2_4" type="a"/>
  <edge id="t_3_5-p_3_6" from="t_3_5" to="p_3_6" type="b"/>
  <edge id="t_3_5-t_3_4" from="t_3_5" to="t_3_4" type="b"/>
  <edge id="t_3_5-t_4_5" from="t_3_5" to="t_4_5" type="a"/>
  <edge id="t_3_5-t_2_5" from="t_3_5" to="t_2_5" type="a"/>
  <edge id="t_4_1-t_4_2" from="t_4_1" to="t_4_2" type="b"/>
  <edge id="t_4_1-p_4_0" from="t_4_1" to="p_4_0" type="b"/>
  <edge id="t_4_1-t_5_1" from="t_4_1" to="t_5_1" type="a"/>
  <edge id="t_4_1-t_3_1" from="t_4_1" to="t_3_1" type="a"/>
  <edge id="t_4_2-t_4_3" from="t_4_2" to="t_4_3" type="b"/>
  <edge id="t_4_2-t_4_1" from="t_4_2" to="t_4_1" type="b"/>
  <edge id="t_4_2-t_5_2" from="t_4_2" to="t_5_2" type="a"/>
  <edge id="t_4_2-t_3_2" from="t_4_2" to="t_3_2" type="a"/>
  <edge id="t_4_3-t_4_4" from="t_4_3" to="t_4_4" type="b"/>
  <edge id="t_4_3-t_4_2" from="t_4_3" to="t_4_2" type="b"/>
  <edge id="t_4_3-t_5_3" from="t_4_3" to="t_5_3" type="a"/>
  <edge id="t_4_3-t_3_3" from="t_4_3" to="t_3_3" type="a"/>
  <edge id="t_4_4-t_4_5" from="t_4_4" to="t_4_5" type="b"/>
  <edge id="t_4_4-t_4_3" from="t_4_4" to="t_4_3" type="b"/>
  <edge id="t_4_4-t_5_4" from="t_4_4" to="t_5_4" type="a"/>
  <edge id="t_4_4-t_3_4" from="t_4_4" to="t_3_4" type="a"/>
  <edge id="t_4_5-p_4_6" from="t_4_5" to="p_4_6" type="b"/>
  <edge id="t_4_5-t_4_4" from="t_4_5" to="t_4_4" type="b"/>
  <edge id="t_4_5-t_5_5" from="t_4_5" to="t_5_5" type="a"/>
  <edge id="t_4_5-t_3_5" from="t_4_5" to="t_3_5" type="a"/>
  <edge id="t_5_1-t_5_2" from="t_5_1" to="t_5_2" type="b"/>
  <edge id="t_5_1-p_5_0" from="t_5_1" to="p_5_0" type="b"/>
  <edge id="t_5_1-p_6_1" from="t_5_1" to="p_6_1" type="a"/>
  <edge id="t_5_1-t_4_1" from="t_5_1" to="t_4_1" type="a"/>
  <edge id="t_5_2-t_5_3" from="t_5_2" to="t_5_3" type="b"/>
  <edge id="t_5_2-t_5_1" from="t_5_2" to="t_5_1" type="b"/>
  <edge id="t_5_2-p_6_2" from="t_5_2" to="p_6_2" type="a"/>
  <edge id="t_5_2-t_4_2" from="t_5_2" to="t_4_2" type="a"/>
  <edge id="t_5_3-t_5_4" from="t_5_3" to="t_5_4" type="b"/>
  <edge id="t_5_3-t_5_2" from="t_5_3" to="t_5_2" type="b"/>
  <edge id="t_5_3-p_6_3" from="t_5_3" to="p_6_3" type="a"/>
  <edge id="t_5_3-t_4_3" from="t_5_3" to="t_4_3" type="a"/>
  <edge id="t_5_4-t_5_5" from="t_5_4" to="t_5_5" type="b"/>
  <edge id="t_5_4-t_5_3" from="t_5_4" to="t_5_3" type="b"/>
  <edge id="t_5_4-p_6_4" from="t_5_4" to="p_6_4" type="a"/>
  <edge id="t_5_4-t_4_4" from="t_5_4" to="t_4_4" type="a"/>
  <edge id="t_5_5-p_5_6" from="t_5_5" to="p_5_6" type="b"/>
  <edge id="t_5_5-t_5_4" from="t_5_5" to="t_5_4" type="b"/>
  <edge id="t_5_5-p_6_5" from="t_5_5" to="p_6_5" type="a"/>
  <edge id="t_5_5-t_4_5" from="t_5_5" to="t_4_5" type="a"/>
  <edge id="p_0_1-t_1_1" from="p_0_1" to="t_1_1" type="a"/>
  <edge id="p_1_0-t_1_1" from="p_1_0" to="t_1_1" type="b"/>
  <edge id="p_6_1-t_5_1" from="p_6_1" to="t_5_1" type="a"/>
  <edge id="p_1_6-t_1_5" from="p_1_6" to="t_1_5" type="b"/>
  <edge id="p_0_2-t_1_2" from="p_0_2" to="t_1_2" type="a"/>
  <edge id="p_2_0-t_2_1" from="p_2_0" to="t_2_1" type="b"/>
  <edge id="p_6_2-t_5_2" from="p_6_2" to="t_5_2" type="a"/>
  <edge id="p_2_6-t_2_5" from="p_2_6" to="t_2_5" type="b"/>
  <edge id="p_0_3-t_1_3" from="p_0_3" to="t_1_3" type="a"/>
  <edge id="p_3_0-t_3_1" from="p_3_0" to="t_3_1" type="b"/>
  <edge id="p_6_3-t_5_3" from="p_6_3" to="t_5_3" type="a"/>
  <edge id="p_3_6-t_3_5" from="p_3_6" to="t_3_5" type="b"/>
  <edge id="p_0_4-t_1_4" from="p_0_4" to="t_1_4" type="a"/>
  <edge id="p_4_0-t_4_1" from="p_4_0" to="t_4_1" type="b"/>
  <edge id="p_6_4-t_5_4" from="p_6_4" to="t_5_4" type="a"/>
  <edge id="p_4_6-t_4_5" from="p_4_6" to="t_4_5" type="b"/>
  <edge id="p_0_5-t_1_5" from="p_0_5" to="t_1_5" type="a"/>
  <edge id="p_5_0-t_5_1" from="p_5_0" to="t_5_1" type="b"/>
  <edge id="p_6_5-t_5_5" from="p_6_5" to="t_5_5" type="a"/>
  <edge id="p_5_6-t_5_5" from="p_5_6" to="t_5_5" type="b"/>
</edges>
