<nodes>
  <node id="p_0_1" x="-150.00" y="0.00" type="priority"/>
  <node id="p_0_2" x="-150.00" y="200.00" type="priority"/>
  <node id="p_0_3" x="-150.00" y="400.00" type="priority"/>
  <node id="p_0_4" x="-150.00" y="600.00" type="priority"/>
  <node id="p_0_5" x="-150.00" y="800.00" type="priority"/>
  <node id="p_1_0" x="0.00" y="-150.00" type="priority"/>
  <node id="t_1_1" x="0.00" y="0.00" type="traffic_light"/>
  <node id="t_1_2" x="0.00" y="200.00" type="traffic_light"/>
  <node id="t_1_3" x="0.00" y="400.00" type="traffic_light"/>
  <node id="t_1_4" x="0.00" y="600.00" type="traffic_light"/>
  <node id="t_1_5" x="0.00" y="800.00" type="traffic_light"/>
  <node id="p_1_6" x="0.00" y="950.00" type="priority"/>
  <node id="p_2_0" x="200.00" y="-150.00" type="priority"/>
  <node id="t_2_1" x="200.00" y="0.00" type="traffic_light"/>
  <node id="t_2_2" x="200.00" y="200.00" type="traffic_light"/>
  <node id="t_2_3" x="200.00" y="400.00" type="traffic_light"/>
  <node id="t_2_4" x="200.00" y="600.00" type="traffic_light"/>
  <node id="t_2_5" x="200.00" y="800.00" type="traffic_light"/>
  <node id="p_2_6" x="200.00" y="950.00" type="priority"/>
  <node id="p_3_0" x="400.00" y="-150.00" type="priority"/>
  <node id="t_3_1" x="400.00" y="0.00" type="traffic_light"/>
  <node id="t_3_2" x="400.00" y="200.00" type="traffic_light"/>
  <node id="t_3_3" x="400.00" y="400.00" type="traffic_light"/>
  <node id="t_3_4" x="400.00" y="600.00" type="traffic_light"/>
  <node id="t_3_5" x="400.00" y="800.00" type="traffic_light"/>
  <node id="p_3_6" x="400.00" y="950.00" type="priority"/>
  <node id="p_4_0" x="600.00" y="-150.00" type="priority"/>
  <node id="t_4_1" x="600.00" y="0.00" type="traffic_light"/>
  <node id="t_4_2" x="600.00" y="200.00" type="traffic_light"/>
  <node id="t_4_3" x="600.00" y="400.00" type="traffic_light"/>
  <node id="t_4_4" x="600.00" y="600.00" type="traffic_light"/>
  <node id="t_4_5" x="600.00" y="800.00" type="traffic_light"/>
  <node id="p_4_6" x="600.00" y="950.00" type="priority"/>
  <node id="p_5_0" x="800.00" y="-150.00" type="priority"/>
  <node id="t_5_1" x="800.00" y="0.00" type="traffic_light"/>
  <node id="t_5_2" x="800.00" y="200.00" type="traffic_light"/>
  <node id="t_5_3" x="800.00" y="400.00" type="traffic_light"/>
  <node id="t_5_4" x="800.00" y="600.00" type="traffic_light"/>
  <node id="t_5_5" x="800.00" y="800.00" type="traffic_light"/>
  <node id="p_5_6" x="800.00" y="950.00" type="priority"/>
  <node id="p_6_1" x="950.00" y="0.00" type="priority"/>
  <node id="p_6_2" x="950.00" y="200.00" type="priority"/>
  <node id="p_6_3" x="950.00" y="400.00" type="priority"/>
  <node id="p_6_4" x="950.00" y="600.00" type="priority"/>
  <node id="p_6_5" x="950.00" y="800.00" type="priority"/>
</nodes>
