<?xml version="1.0" encoding="UTF-8"?>

<!-- generated on 2023-02-22 20:47:29 by Eclipse SUMO netconvert Version 1.14.1
<configuration xmlns:xsi="http://www.w3.org/2001/XMLSchema-instance" xsi:noNamespaceSchemaLocation="http://sumo.dlr.de/xsd/netconvertConfiguration.xsd">

    <input>
        <node-files value="exp.nod.xml"/>
        <edge-files value="exp.edg.xml"/>
        <connection-files value="exp.con.xml"/>
        <tllogic-files value="exp.tll.xml"/>
        <type-files value="exp.typ.xml"/>
    </input>

    <output>
        <output-file value="exp.net.xml"/>
    </output>

</configuration>
-->

<net version="1.9" junctionCornerDetail="5" limitTurnSpeed="5.50" xmlns:xsi="http://www.w3.org/2001/XMLSchema-instance" xsi:noNamespaceSchemaLocation="http://sumo.dlr.de/xsd/net_file.xsd">

    <location netOffset="150.00,150.00" convBoundary="0.00,0.00,1100.00,1100.00" origBoundary="-150.00,-150.00,950.00,950.00" projParameter="!"/>

    <type id="a" priority="2" numLanes="4" speed="20.00"/>
    <type id="b" priority="1" numLanes="4" speed="20.00"/>

    <edge id=":p_0_1_0" function="internal">
        <lane id=":p_0_1_0_0" index="0" speed="3.65" length="4.67" shape="0.00,151.60 -1.20,150.80 -1.60,150.00 -1.20,149.20 0.00,148.40"/>
    </edge>
    <edge id=":p_0_2_0" function="internal">
        <lane id=":p_0_2_0_0" index="0" speed="3.65" length="4.67" shape="0.00,351.60 -1.20,350.80 -1.60,350.00 -1.20,349.20 0.00,348.40"/>
    </edge>
    <edge id=":p_0_3_0" function="internal">
        <lane id=":p_0_3_0_0" index="0" speed="3.65" length="4.67" shape="0.00,551.60 -1.20,550.80 -1.60,550.00 -1.20,549.20 0.00,548.40"/>
    </edge>
    <edge id=":p_0_4_0" function="internal">
        <lane id=":p_0_4_0_0" index="0" speed="3.65" length="4.67" shape="0.00,751.60 -1.20,750.80 -1.60,750.00 -1.20,749.20 0.00,748.40"/>
    </edge>
    <edge id=":p_0_5_0" function="internal">
        <lane id=":p_0_5_0_0" index="0" speed="3.65" length="4.67" shape="0.00,951.60 -1.20,950.80 -1.60,950.00 -1.20,949.20 0.00,948.40"/>
    </edge>
    <edge id=":p_1_0_0" function="internal">
        <lane id=":p_1_0_0_0" index="0" speed="3.65" length="4.67" shape="148.40,0.00 149.20,-1.20 150.00,-1.60 150.80,-1.20 151.60,0.00"/>
    </edge>
    <edge id=":p_1_6_0" function="internal">
        <lane id=":p_1_6_0_0" index="0" speed="3.65" length="4.67" shape="151.60,1100.00 150.80,1101.20 150.00,1101.60 149.20,1101.20 148.40,1100.00"/>
    </edge>
    <edge id=":p_2_0_0" function="internal">
        <lane id=":p_2_0_0_0" index="0" speed="3.65" length="4.67" shape="348.40,0.00 349.20,-1.20 350.00,-1.60 350.80,-1.20 351.60,0.00"/>
    </edge>
    <edge id=":p_2_6_0" function="internal">
        <lane id=":p_2_6_0_0" index="0" speed="3.65" length="4.67" shape="351.60,1100.00 350.80,1101.20 350.00,1101.60 349.20,1101.20 348.40,1100.00"/>
    </edge>
    <edge id=":p_3_0_0" function="internal">
        <lane id=":p_3_0_0_0" index="0" speed="3.65" length="4.67" shape="548.40,0.00 549.20,-1.20 550.00,-1.60 550.80,-1.20 551.60,0.00"/>
    </edge>
    <edge id=":p_3_6_0" function="internal">
        <lane id=":p_3_6_0_0" index="0" speed="3.65" length="4.67" shape="551.60,1100.00 550.80,1101.20 550.00,1101.60 549.20,1101.20 548.40,1100.00"/>
    </edge>
    <edge id=":p_4_0_0" function="internal">
        <lane id=":p_4_0_0_0" index="0" speed="3.65" length="4.67" shape="748.40,0.00 749.20,-1.20 750.00,-1.60 750.80,-1.20 751.60,0.00"/>
    </edge>
    <edge id=":p_4_6_0" function="internal">
        <lane id=":p_4_6_0_0" index="0" speed="3.65" length="4.67" shape="751.60,1100.00 750.80,1101.20 750.00,1101.60 749.20,1101.20 748.40,1100.00"/>
    </edge>
    <edge id=":p_5_0_0" function="internal">
        <lane id=":p_5_0_0_0" index="0" speed="3.65" length="4.67" shape="948.40,0.00 949.20,-1.20 950.00,-1.60 950.80,-1.20 951.60,0.00"/>
    </edge>
    <edge id=":p_5_6_0" function="internal">
        <lane id=":p_5_6_0_0" index="0" speed="3.65" length="4.67" shape="951.60,1100.00 950.80,1101.20 950.00,1101.60 949.20,1101.20 948.40,1100.00"/>
    </edge>
    <edge id=":p_6_1_0" function="internal">
        <lane id=":p_6_1_0_0" index="0" speed="3.65" length="4.67" shape="1100.00,148.40 1101.20,149.20 1101.60,150.00 1101.20,150.80 1100.00,151.60"/>
    </edge>
    <edge id=":p_6_2_0" function="internal">
        <lane id=":p_6_2_0_0" index="0" speed="3.65" length="4.67" shape="1100.00,348.40 1101.20,349.20 1101.60,350.00 1101.20,350.80 1100.00,351.60"/>
    </edge>
    <edge id=":p_6_3_0" function="internal">
        <lane id=":p_6_3_0_0" index="0" speed="3.65" length="4.67" shape="1100.00,548.40 1101.20,549.20 1101.60,550.00 1101.20,550.80 1100.00,551.60"/>
    </edge>
    <edge id=":p_6_4_0" function="internal">
        <lane id=":p_6_4_0_0" index="0" speed="3.65" length="4.67" shape="1100.00,748.40 1101.20,749.20 1101.60,750.00 1101.20,750.80 1100.00,751.60"/>
    </edge>
    <edge id=":p_6_5_0" function="internal">
        <lane id=":p_6_5_0_0" index="0" speed="3.65" length="4.67" shape="1100.00,948.40 1101.20,949.20 1101.60,950.00 1101.20,950.80 1100.00,951.60"/>
    </edge>
    <edge id=":t_1_1_0" function="internal">
        <lane id=":t_1_1_0_0" index="0" speed="8.00" length="14.19" shape="142.00,166.80 141.45,162.95 139.80,160.20 137.05,158.55 133.20,158.00"/>
    </edge>
    <edge id=":t_1_1_1" function="internal">
        <lane id=":t_1_1_1_0" index="0" speed="20.00" length="33.60" shape="142.00,166.80 142.00,133.20"/>
    </edge>
    <edge id=":t_1_1_2" function="internal">
        <lane id=":t_1_1_2_0" index="0" speed="12.28" length="34.84" shape="145.20,166.80 146.55,157.35 150.60,150.60 157.35,146.55 166.80,145.20"/>
    </edge>
    <edge id=":t_1_1_3" function="internal">
        <lane id=":t_1_1_3_0" index="0" speed="8.00" length="14.19" shape="166.80,158.00 162.95,158.55 160.20,160.20 158.55,162.95 158.00,166.80"/>
    </edge>
    <edge id=":t_1_1_4" function="internal">
        <lane id=":t_1_1_4_0" index="0" speed="20.00" length="33.60" shape="166.80,158.00 133.20,158.00"/>
    </edge>
    <edge id=":t_1_1_5" function="internal">
        <lane id=":t_1_1_5_0" index="0" speed="12.28" length="34.84" shape="166.80,154.80 157.35,153.45 150.60,149.40 146.55,142.65 145.20,133.20"/>
    </edge>
    <edge id=":t_1_1_6" function="internal">
        <lane id=":t_1_1_6_0" index="0" speed="8.00" length="14.19" shape="158.00,133.20 158.55,137.05 160.20,139.80 162.95,141.45 166.80,142.00"/>
    </edge>
    <edge id=":t_1_1_7" function="internal">
        <lane id=":t_1_1_7_0" index="0" speed="20.00" length="33.60" shape="158.00,133.20 158.00,166.80"/>
    </edge>
    <edge id=":t_1_1_8" function="internal">
        <lane id=":t_1_1_8_0" index="0" speed="12.28" length="34.84" shape="154.80,133.20 153.45,142.65 149.40,149.40 142.65,153.45 133.20,154.80"/>
    </edge>
    <edge id=":t_1_1_9" function="internal">
        <lane id=":t_1_1_9_0" index="0" speed="8.00" length="14.19" shape="133.20,142.00 137.05,141.45 139.80,139.80 141.45,137.05 142.00,133.20"/>
    </edge>
    <edge id=":t_1_1_10" function="internal">
        <lane id=":t_1_1_10_0" index="0" speed="20.00" length="33.60" shape="133.20,142.00 166.80,142.00"/>
    </edge>
    <edge id=":t_1_1_11" function="internal">
        <lane id=":t_1_1_11_0" index="0" speed="12.28" length="34.84" shape="133.20,145.20 142.65,146.55 149.40,150.60 153.45,157.35 154.80,166.80"/>
    </edge>
    <edge id=":t_1_2_0" function="internal">
        <lane id=":t_1_2_0_0" index="0" speed="8.00" length="14.19" shape="142.00,366.80 141.45,362.95 139.80,360.20 137.05,358.55 133.20,358.00"/>
    </edge>
    <edge id=":t_1_2_1" function="internal">
        <lane id=":t_1_2_1_0" index="0" speed="20.00" length="33.60" shape="142.00,366.80 142.00,333.20"/>
    </edge>
    <edge id=":t_1_2_2" function="internal">
        <lane id=":t_1_2_2_0" index="0" speed="12.28" length="34.84" shape="145.20,366.80 146.55,357.35 150.60,350.60 157.35,346.55 166.80,345.20"/>
    </edge>
    <edge id=":t_1_2_3" function="internal">
        <lane id=":t_1_2_3_0" index="0" speed="8.00" length="14.19" shape="166.80,358.00 162.95,358.55 160.20,360.20 158.55,362.95 158.00,366.80"/>
    </edge>
    <edge id=":t_1_2_4" function="internal">
        <lane id=":t_1_2_4_0" index="0" speed="20.00" length="33.60" shape="166.80,358.00 133.20,358.00"/>
    </edge>
    <edge id=":t_1_2_5" function="internal">
        <lane id=":t_1_2_5_0" index="0" speed="12.28" length="34.84" shape="166.80,354.80 157.35,353.45 150.60,349.40 146.55,342.65 145.20,333.20"/>
    </edge>
    <edge id=":t_1_2_6" function="internal">
        <lane id=":t_1_2_6_0" index="0" speed="8.00" length="14.19" shape="158.00,333.20 158.55,337.05 160.20,339.80 162.95,341.45 166.80,342.00"/>
    </edge>
    <edge id=":t_1_2_7" function="internal">
        <lane id=":t_1_2_7_0" index="0" speed="20.00" length="33.60" shape="158.00,333.20 158.00,366.80"/>
    </edge>
    <edge id=":t_1_2_8" function="internal">
        <lane id=":t_1_2_8_0" index="0" speed="12.28" length="34.84" shape="154.80,333.20 153.45,342.65 149.40,349.40 142.65,353.45 133.20,354.80"/>
    </edge>
    <edge id=":t_1_2_9" function="internal">
        <lane id=":t_1_2_9_0" index="0" speed="8.00" length="14.19" shape="133.20,342.00 137.05,341.45 139.80,339.80 141.45,337.05 142.00,333.20"/>
    </edge>
    <edge id=":t_1_2_10" function="internal">
        <lane id=":t_1_2_10_0" index="0" speed="20.00" length="33.60" shape="133.20,342.00 166.80,342.00"/>
    </edge>
    <edge id=":t_1_2_11" function="internal">
        <lane id=":t_1_2_11_0" index="0" speed="12.28" length="34.84" shape="133.20,345.20 142.65,346.55 149.40,350.60 153.45,357.35 154.80,366.80"/>
    </edge>
    <edge id=":t_1_3_0" function="internal">
        <lane id=":t_1_3_0_0" index="0" speed="8.00" length="14.19" shape="142.00,566.80 141.45,562.95 139.80,560.20 137.05,558.55 133.20,558.00"/>
    </edge>
    <edge id=":t_1_3_1" function="internal">
        <lane id=":t_1_3_1_0" index="0" speed="20.00" length="33.60" shape="142.00,566.80 142.00,533.20"/>
    </edge>
    <edge id=":t_1_3_2" function="internal">
        <lane id=":t_1_3_2_0" index="0" speed="12.28" length="34.84" shape="145.20,566.80 146.55,557.35 150.60,550.60 157.35,546.55 166.80,545.20"/>
    </edge>
    <edge id=":t_1_3_3" function="internal">
        <lane id=":t_1_3_3_0" index="0" speed="8.00" length="14.19" shape="166.80,558.00 162.95,558.55 160.20,560.20 158.55,562.95 158.00,566.80"/>
    </edge>
    <edge id=":t_1_3_4" function="internal">
        <lane id=":t_1_3_4_0" index="0" speed="20.00" length="33.60" shape="166.80,558.00 133.20,558.00"/>
    </edge>
    <edge id=":t_1_3_5" function="internal">
        <lane id=":t_1_3_5_0" index="0" speed="12.28" length="34.84" shape="166.80,554.80 157.35,553.45 150.60,549.40 146.55,542.65 145.20,533.20"/>
    </edge>
    <edge id=":t_1_3_6" function="internal">
        <lane id=":t_1_3_6_0" index="0" speed="8.00" length="14.19" shape="158.00,533.20 158.55,537.05 160.20,539.80 162.95,541.45 166.80,542.00"/>
    </edge>
    <edge id=":t_1_3_7" function="internal">
        <lane id=":t_1_3_7_0" index="0" speed="20.00" length="33.60" shape="158.00,533.20 158.00,566.80"/>
    </edge>
    <edge id=":t_1_3_8" function="internal">
        <lane id=":t_1_3_8_0" index="0" speed="12.28" length="34.84" shape="154.80,533.20 153.45,542.65 149.40,549.40 142.65,553.45 133.20,554.80"/>
    </edge>
    <edge id=":t_1_3_9" function="internal">
        <lane id=":t_1_3_9_0" index="0" speed="8.00" length="14.19" shape="133.20,542.00 137.05,541.45 139.80,539.80 141.45,537.05 142.00,533.20"/>
    </edge>
    <edge id=":t_1_3_10" function="internal">
        <lane id=":t_1_3_10_0" index="0" speed="20.00" length="33.60" shape="133.20,542.00 166.80,542.00"/>
    </edge>
    <edge id=":t_1_3_11" function="internal">
        <lane id=":t_1_3_11_0" index="0" speed="12.28" length="34.84" shape="133.20,545.20 142.65,546.55 149.40,550.60 153.45,557.35 154.80,566.80"/>
    </edge>
    <edge id=":t_1_4_0" function="internal">
        <lane id=":t_1_4_0_0" index="0" speed="8.00" length="14.19" shape="142.00,766.80 141.45,762.95 139.80,760.20 137.05,758.55 133.20,758.00"/>
    </edge>
    <edge id=":t_1_4_1" function="internal">
        <lane id=":t_1_4_1_0" index="0" speed="20.00" length="33.60" shape="142.00,766.80 142.00,733.20"/>
    </edge>
    <edge id=":t_1_4_2" function="internal">
        <lane id=":t_1_4_2_0" index="0" speed="12.28" length="34.84" shape="145.20,766.80 146.55,757.35 150.60,750.60 157.35,746.55 166.80,745.20"/>
    </edge>
    <edge id=":t_1_4_3" function="internal">
        <lane id=":t_1_4_3_0" index="0" speed="8.00" length="14.19" shape="166.80,758.00 162.95,758.55 160.20,760.20 158.55,762.95 158.00,766.80"/>
    </edge>
    <edge id=":t_1_4_4" function="internal">
        <lane id=":t_1_4_4_0" index="0" speed="20.00" length="33.60" shape="166.80,758.00 133.20,758.00"/>
    </edge>
    <edge id=":t_1_4_5" function="internal">
        <lane id=":t_1_4_5_0" index="0" speed="12.28" length="34.84" shape="166.80,754.80 157.35,753.45 150.60,749.40 146.55,742.65 145.20,733.20"/>
    </edge>
    <edge id=":t_1_4_6" function="internal">
        <lane id=":t_1_4_6_0" index="0" speed="8.00" length="14.19" shape="158.00,733.20 158.55,737.05 160.20,739.80 162.95,741.45 166.80,742.00"/>
    </edge>
    <edge id=":t_1_4_7" function="internal">
        <lane id=":t_1_4_7_0" index="0" speed="20.00" length="33.60" shape="158.00,733.20 158.00,766.80"/>
    </edge>
    <edge id=":t_1_4_8" function="internal">
        <lane id=":t_1_4_8_0" index="0" speed="12.28" length="34.84" shape="154.80,733.20 153.45,742.65 149.40,749.40 142.65,753.45 133.20,754.80"/>
    </edge>
    <edge id=":t_1_4_9" function="internal">
        <lane id=":t_1_4_9_0" index="0" speed="8.00" length="14.19" shape="133.20,742.00 137.05,741.45 139.80,739.80 141.45,737.05 142.00,733.20"/>
    </edge>
    <edge id=":t_1_4_10" function="internal">
        <lane id=":t_1_4_10_0" index="0" speed="20.00" length="33.60" shape="133.20,742.00 166.80,742.00"/>
    </edge>
    <edge id=":t_1_4_11" function="internal">
        <lane id=":t_1_4_11_0" index="0" speed="12.28" length="34.84" shape="133.20,745.20 142.65,746.55 149.40,750.60 153.45,757.35 154.80,766.80"/>
    </edge>
    <edge id=":t_1_5_0" function="internal">
        <lane id=":t_1_5_0_0" index="0" speed="8.00" length="14.19" shape="142.00,966.80 141.45,962.95 139.80,960.20 137.05,958.55 133.20,958.00"/>
    </edge>
    <edge id=":t_1_5_1" function="internal">
        <lane id=":t_1_5_1_0" index="0" speed="20.00" length="33.60" shape="142.00,966.80 142.00,933.20"/>
    </edge>
    <edge id=":t_1_5_2" function="internal">
        <lane id=":t_1_5_2_0" index="0" speed="12.28" length="34.84" shape="145.20,966.80 146.55,957.35 150.60,950.60 157.35,946.55 166.80,945.20"/>
    </edge>
    <edge id=":t_1_5_3" function="internal">
        <lane id=":t_1_5_3_0" index="0" speed="8.00" length="14.19" shape="166.80,958.00 162.95,958.55 160.20,960.20 158.55,962.95 158.00,966.80"/>
    </edge>
    <edge id=":t_1_5_4" function="internal">
        <lane id=":t_1_5_4_0" index="0" speed="20.00" length="33.60" shape="166.80,958.00 133.20,958.00"/>
    </edge>
    <edge id=":t_1_5_5" function="internal">
        <lane id=":t_1_5_5_0" index="0" speed="12.28" length="34.84" shape="166.80,954.80 157.35,953.45 150.60,949.40 146.55,942.65 145.20,933.20"/>
    </edge>
    <edge id=":t_1_5_6" function="internal">
        <lane id=":t_1_5_6_0" index="0" speed="8.00" length="14.19" shape="158.00,933.20 158.55,937.05 160.20,939.80 162.95,941.45 166.80,942.00"/>
    </edge>
    <edge id=":t_1_5_7" function="internal">
        <lane id=":t_1_5_7_0" index="0" speed="20.00" length="33.60" shape="158.00,933.20 158.00,966.80"/>
    </edge>
    <edge id=":t_1_5_8" function="internal">
        <lane id=":t_1_5_8_0" index="0" speed="12.28" length="34.84" shape="154.80,933.20 153.45,942.65 149.40,949.40 142.65,953.45 133.20,954.80"/>
    </edge>
    <edge id=":t_1_5_9" function="internal">
        <lane id=":t_1_5_9_0" index="0" speed="8.00" length="14.19" shape="133.20,942.00 137.05,941.45 139.80,939.80 141.45,937.05 142.00,933.20"/>
    </edge>
    <edge id=":t_1_5_10" function="internal">
        <lane id=":t_1_5_10_0" index="0" speed="20.00" length="33.60" shape="133.20,942.00 166.80,942.00"/>
    </edge>
    <edge id=":t_1_5_11" function="internal">
        <lane id=":t_1_5_11_0" index="0" speed="12.28" length="34.84" shape="133.20,945.20 142.65,946.55 149.40,950.60 153.45,957.35 154.80,966.80"/>
    </edge>
    <edge id=":t_2_1_0" function="internal">
        <lane id=":t_2_1_0_0" index="0" speed="8.00" length="14.19" shape="342.00,166.80 341.45,162.95 339.80,160.20 337.05,158.55 333.20,158.00"/>
    </edge>
    <edge id=":t_2_1_1" function="internal">
        <lane id=":t_2_1_1_0" index="0" speed="20.00" length="33.60" shape="342.00,166.80 342.00,133.20"/>
    </edge>
    <edge id=":t_2_1_2" function="internal">
        <lane id=":t_2_1_2_0" index="0" speed="12.28" length="34.84" shape="345.20,166.80 346.55,157.35 350.60,150.60 357.35,146.55 366.80,145.20"/>
    </edge>
    <edge id=":t_2_1_3" function="internal">
        <lane id=":t_2_1_3_0" index="0" speed="8.00" length="14.19" shape="366.80,158.00 362.95,158.55 360.20,160.20 358.55,162.95 358.00,166.80"/>
    </edge>
    <edge id=":t_2_1_4" function="internal">
        <lane id=":t_2_1_4_0" index="0" speed="20.00" length="33.60" shape="366.80,158.00 333.20,158.00"/>
    </edge>
    <edge id=":t_2_1_5" function="internal">
        <lane id=":t_2_1_5_0" index="0" speed="12.28" length="34.84" shape="366.80,154.80 357.35,153.45 350.60,149.40 346.55,142.65 345.20,133.20"/>
    </edge>
    <edge id=":t_2_1_6" function="internal">
        <lane id=":t_2_1_6_0" index="0" speed="8.00" length="14.19" shape="358.00,133.20 358.55,137.05 360.20,139.80 362.95,141.45 366.80,142.00"/>
    </edge>
    <edge id=":t_2_1_7" function="internal">
        <lane id=":t_2_1_7_0" index="0" speed="20.00" length="33.60" shape="358.00,133.20 358.00,166.80"/>
    </edge>
    <edge id=":t_2_1_8" function="internal">
        <lane id=":t_2_1_8_0" index="0" speed="12.28" length="34.84" shape="354.80,133.20 353.45,142.65 349.40,149.40 342.65,153.45 333.20,154.80"/>
    </edge>
    <edge id=":t_2_1_9" function="internal">
        <lane id=":t_2_1_9_0" index="0" speed="8.00" length="14.19" shape="333.20,142.00 337.05,141.45 339.80,139.80 341.45,137.05 342.00,133.20"/>
    </edge>
    <edge id=":t_2_1_10" function="internal">
        <lane id=":t_2_1_10_0" index="0" speed="20.00" length="33.60" shape="333.20,142.00 366.80,142.00"/>
    </edge>
    <edge id=":t_2_1_11" function="internal">
        <lane id=":t_2_1_11_0" index="0" speed="12.28" length="34.84" shape="333.20,145.20 342.65,146.55 349.40,150.60 353.45,157.35 354.80,166.80"/>
    </edge>
    <edge id=":t_2_2_0" function="internal">
        <lane id=":t_2_2_0_0" index="0" speed="8.00" length="14.19" shape="342.00,366.80 341.45,362.95 339.80,360.20 337.05,358.55 333.20,358.00"/>
    </edge>
    <edge id=":t_2_2_1" function="internal">
        <lane id=":t_2_2_1_0" index="0" speed="20.00" length="33.60" shape="342.00,366.80 342.00,333.20"/>
    </edge>
    <edge id=":t_2_2_2" function="internal">
        <lane id=":t_2_2_2_0" index="0" speed="12.28" length="34.84" shape="345.20,366.80 346.55,357.35 350.60,350.60 357.35,346.55 366.80,345.20"/>
    </edge>
    <edge id=":t_2_2_3" function="internal">
        <lane id=":t_2_2_3_0" index="0" speed="8.00" length="14.19" shape="366.80,358.00 362.95,358.55 360.20,360.20 358.55,362.95 358.00,366.80"/>
    </edge>
    <edge id=":t_2_2_4" function="internal">
        <lane id=":t_2_2_4_0" index="0" speed="20.00" length="33.60" shape="366.80,358.00 333.20,358.00"/>
    </edge>
    <edge id=":t_2_2_5" function="internal">
        <lane id=":t_2_2_5_0" index="0" speed="12.28" length="34.84" shape="366.80,354.80 357.35,353.45 350.60,349.40 346.55,342.65 345.20,333.20"/>
    </edge>
    <edge id=":t_2_2_6" function="internal">
        <lane id=":t_2_2_6_0" index="0" speed="8.00" length="14.19" shape="358.00,333.20 358.55,337.05 360.20,339.80 362.95,341.45 366.80,342.00"/>
    </edge>
    <edge id=":t_2_2_7" function="internal">
        <lane id=":t_2_2_7_0" index="0" speed="20.00" length="33.60" shape="358.00,333.20 358.00,366.80"/>
    </edge>
    <edge id=":t_2_2_8" function="internal">
        <lane id=":t_2_2_8_0" index="0" speed="12.28" length="34.84" shape="354.80,333.20 353.45,342.65 349.40,349.40 342.65,353.45 333.20,354.80"/>
    </edge>
    <edge id=":t_2_2_9" function="internal">
        <lane id=":t_2_2_9_0" index="0" speed="8.00" length="14.19" shape="333.20,342.00 337.05,341.45 339.80,339.80 341.45,337.05 342.00,333.20"/>
    </edge>
    <edge id=":t_2_2_10" function="internal">
        <lane id=":t_2_2_10_0" index="0" speed="20.00" length="33.60" shape="333.20,342.00 366.80,342.00"/>
    </edge>
    <edge id=":t_2_2_11" function="internal">
        <lane id=":t_2_2_11_0" index="0" speed="12.28" length="34.84" shape="333.20,345.20 342.65,346.55 349.40,350.60 353.45,357.35 354.80,366.80"/>
    </edge>
    <edge id=":t_2_3_0" function="internal">
        <lane id=":t_2_3_0_0" index="0" speed="8.00" length="14.19" shape="342.00,566.80 341.45,562.95 339.80,560.20 337.05,558.55 333.20,558.00"/>
    </edge>
    <edge id=":t_2_3_1" function="internal">
        <lane id=":t_2_3_1_0" index="0" speed="20.00" length="33.60" shape="342.00,566.80 342.00,533.20"/>
    </edge>
    <edge id=":t_2_3_2" function="internal">
        <lane id=":t_2_3_2_0" index="0" speed="12.28" length="34.84" shape="345.20,566.80 346.55,557.35 350.60,550.60 357.35,546.55 366.80,545.20"/>
    </edge>
    <edge id=":t_2_3_3" function="internal">
        <lane id=":t_2_3_3_0" index="0" speed="8.00" length="14.19" shape="366.80,558.00 362.95,558.55 360.20,560.20 358.55,562.95 358.00,566.80"/>
    </edge>
    <edge id=":t_2_3_4" function="internal">
        <lane id=":t_2_3_4_0" index="0" speed="20.00" length="33.60" shape="366.80,558.00 333.20,558.00"/>
    </edge>
    <edge id=":t_2_3_5" function="internal">
        <lane id=":t_2_3_5_0" index="0" speed="12.28" length="34.84" shape="366.80,554.80 357.35,553.45 350.60,549.40 346.55,542.65 345.20,533.20"/>
    </edge>
    <edge id=":t_2_3_6" function="internal">
        <lane id=":t_2_3_6_0" index="0" speed="8.00" length="14.19" shape="358.00,533.20 358.55,537.05 360.20,539.80 362.95,541.45 366.80,542.00"/>
    </edge>
    <edge id=":t_2_3_7" function="internal">
        <lane id=":t_2_3_7_0" index="0" speed="20.00" length="33.60" shape="358.00,533.20 358.00,566.80"/>
    </edge>
    <edge id=":t_2_3_8" function="internal">
        <lane id=":t_2_3_8_0" index="0" speed="12.28" length="34.84" shape="354.80,533.20 353.45,542.65 349.40,549.40 342.65,553.45 333.20,554.80"/>
    </edge>
    <edge id=":t_2_3_9" function="internal">
        <lane id=":t_2_3_9_0" index="0" speed="8.00" length="14.19" shape="333.20,542.00 337.05,541.45 339.80,539.80 341.45,537.05 342.00,533.20"/>
    </edge>
    <edge id=":t_2_3_10" function="internal">
        <lane id=":t_2_3_10_0" index="0" speed="20.00" length="33.60" shape="333.20,542.00 366.80,542.00"/>
    </edge>
    <edge id=":t_2_3_11" function="internal">
        <lane id=":t_2_3_11_0" index="0" speed="12.28" length="34.84" shape="333.20,545.20 342.65,546.55 349.40,550.60 353.45,557.35 354.80,566.80"/>
    </edge>
    <edge id=":t_2_4_0" function="internal">
        <lane id=":t_2_4_0_0" index="0" speed="8.00" length="14.19" shape="342.00,766.80 341.45,762.95 339.80,760.20 337.05,758.55 333.20,758.00"/>
    </edge>
    <edge id=":t_2_4_1" function="internal">
        <lane id=":t_2_4_1_0" index="0" speed="20.00" length="33.60" shape="342.00,766.80 342.00,733.20"/>
    </edge>
    <edge id=":t_2_4_2" function="internal">
        <lane id=":t_2_4_2_0" index="0" speed="12.28" length="34.84" shape="345.20,766.80 346.55,757.35 350.60,750.60 357.35,746.55 366.80,745.20"/>
    </edge>
    <edge id=":t_2_4_3" function="internal">
        <lane id=":t_2_4_3_0" index="0" speed="8.00" length="14.19" shape="366.80,758.00 362.95,758.55 360.20,760.20 358.55,762.95 358.00,766.80"/>
    </edge>
    <edge id=":t_2_4_4" function="internal">
        <lane id=":t_2_4_4_0" index="0" speed="20.00" length="33.60" shape="366.80,758.00 333.20,758.00"/>
    </edge>
    <edge id=":t_2_4_5" function="internal">
        <lane id=":t_2_4_5_0" index="0" speed="12.28" length="34.84" shape="366.80,754.80 357.35,753.45 350.60,749.40 346.55,742.65 345.20,733.20"/>
    </edge>
    <edge id=":t_2_4_6" function="internal">
        <lane id=":t_2_4_6_0" index="0" speed="8.00" length="14.19" shape="358.00,733.20 358.55,737.05 360.20,739.80 362.95,741.45 366.80,742.00"/>
    </edge>
    <edge id=":t_2_4_7" function="internal">
        <lane id=":t_2_4_7_0" index="0" speed="20.00" length="33.60" shape="358.00,733.20 358.00,766.80"/>
    </edge>
    <edge id=":t_2_4_8" function="internal">
        <lane id=":t_2_4_8_0" index="0" speed="12.28" length="34.84" shape="354.80,733.20 353.45,742.65 349.40,749.40 342.65,753.45 333.20,754.80"/>
    </edge>
    <edge id=":t_2_4_9" function="internal">
        <lane id=":t_2_4_9_0" index="0" speed="8.00" length="14.19" shape="333.20,742.00 337.05,741.45 339.80,739.80 341.45,737.05 342.00,733.20"/>
    </edge>
    <edge id=":t_2_4_10" function="internal">
        <lane id=":t_2_4_10_0" index="0" speed="20.00" length="33.60" shape="333.20,742.00 366.80,742.00"/>
    </edge>
    <edge id=":t_2_4_11" function="internal">
        <lane id=":t_2_4_11_0" index="0" speed="12.28" length="34.84" shape="333.20,745.20 342.65,746.55 349.40,750.60 353.45,757.35 354.80,766.80"/>
    </edge>
    <edge id=":t_2_5_0" function="internal">
        <lane id=":t_2_5_0_0" index="0" speed="8.00" length="14.19" shape="342.00,966.80 341.45,962.95 339.80,960.20 337.05,958.55 333.20,958.00"/>
    </edge>
    <edge id=":t_2_5_1" function="internal">
        <lane id=":t_2_5_1_0" index="0" speed="20.00" length="33.60" shape="342.00,966.80 342.00,933.20"/>
    </edge>
    <edge id=":t_2_5_2" function="internal">
        <lane id=":t_2_5_2_0" index="0" speed="12.28" length="34.84" shape="345.20,966.80 346.55,957.35 350.60,950.60 357.35,946.55 366.80,945.20"/>
    </edge>
    <edge id=":t_2_5_3" function="internal">
        <lane id=":t_2_5_3_0" index="0" speed="8.00" length="14.19" shape="366.80,958.00 362.95,958.55 360.20,960.20 358.55,962.95 358.00,966.80"/>
    </edge>
    <edge id=":t_2_5_4" function="internal">
        <lane id=":t_2_5_4_0" index="0" speed="20.00" length="33.60" shape="366.80,958.00 333.20,958.00"/>
    </edge>
    <edge id=":t_2_5_5" function="internal">
        <lane id=":t_2_5_5_0" index="0" speed="12.28" length="34.84" shape="366.80,954.80 357.35,953.45 350.60,949.40 346.55,942.65 345.20,933.20"/>
    </edge>
    <edge id=":t_2_5_6" function="internal">
        <lane id=":t_2_5_6_0" index="0" speed="8.00" length="14.19" shape="358.00,933.20 358.55,937.05 360.20,939.80 362.95,941.45 366.80,942.00"/>
    </edge>
    <edge id=":t_2_5_7" function="internal">
        <lane id=":t_2_5_7_0" index="0" speed="20.00" length="33.60" shape="358.00,933.20 358.00,966.80"/>
    </edge>
    <edge id=":t_2_5_8" function="internal">
        <lane id=":t_2_5_8_0" index="0" speed="12.28" length="34.84" shape="354.80,933.20 353.45,942.65 349.40,949.40 342.65,953.45 333.20,954.80"/>
    </edge>
    <edge id=":t_2_5_9" function="internal">
        <lane id=":t_2_5_9_0" index="0" speed="8.00" length="14.19" shape="333.20,942.00 337.05,941.45 339.80,939.80 341.45,937.05 342.00,933.20"/>
    </edge>
    <edge id=":t_2_5_10" function="internal">
        <lane id=":t_2_5_10_0" index="0" speed="20.00" length="33.60" shape="333.20,942.00 366.80,942.00"/>
    </edge>
    <edge id=":t_2_5_11" function="internal">
        <lane id=":t_2_5_11_0" index="0" speed="12.28" length="34.84" shape="333.20,945.20 342.65,946.55 349.40,950.60 353.45,957.35 354.80,966.80"/>
    </edge>
    <edge id=":t_3_1_0" function="internal">
        <lane id=":t_3_1_0_0" index="0" speed="8.00" length="14.19" shape="542.00,166.80 541.45,162.95 539.80,160.20 537.05,158.55 533.20,158.00"/>
    </edge>
    <edge id=":t_3_1_1" function="internal">
        <lane id=":t_3_1_1_0" index="0" speed="20.00" length="33.60" shape="542.00,166.80 542.00,133.20"/>
    </edge>
    <edge id=":t_3_1_2" function="internal">
        <lane id=":t_3_1_2_0" index="0" speed="12.28" length="34.84" shape="545.20,166.80 546.55,157.35 550.60,150.60 557.35,146.55 566.80,145.20"/>
    </edge>
    <edge id=":t_3_1_3" function="internal">
        <lane id=":t_3_1_3_0" index="0" speed="8.00" length="14.19" shape="566.80,158.00 562.95,158.55 560.20,160.20 558.55,162.95 558.00,166.80"/>
    </edge>
    <edge id=":t_3_1_4" function="internal">
        <lane id=":t_3_1_4_0" index="0" speed="20.00" length="33.60" shape="566.80,158.00 533.20,158.00"/>
    </edge>
    <edge id=":t_3_1_5" function="internal">
        <lane id=":t_3_1_5_0" index="0" speed="12.28" length="34.84" shape="566.80,154.80 557.35,153.45 550.60,149.40 546.55,142.65 545.20,133.20"/>
    </edge>
    <edge id=":t_3_1_6" function="internal">
        <lane id=":t_3_1_6_0" index="0" speed="8.00" length="14.19" shape="558.00,133.20 558.55,137.05 560.20,139.80 562.95,141.45 566.80,142.00"/>
    </edge>
    <edge id=":t_3_1_7" function="internal">
        <lane id=":t_3_1_7_0" index="0" speed="20.00" length="33.60" shape="558.00,133.20 558.00,166.80"/>
    </edge>
    <edge id=":t_3_1_8" function="internal">
        <lane id=":t_3_1_8_0" index="0" speed="12.28" length="34.84" shape="554.80,133.20 553.45,142.65 549.40,149.40 542.65,153.45 533.20,154.80"/>
    </edge>
    <edge id=":t_3_1_9" function="internal">