<?xml version="1.0" encoding="UTF-8"?>

<!-- generated on 2022-09-28 18:12:46 by Eclipse SUMO netconvert Version 1.14.1
<configuration xmlns:xsi="http://www.w3.org/2001/XMLSchema-instance" xsi:noNamespaceSchemaLocation="http://sumo.dlr.de/xsd/netconvertConfiguration.xsd">

    <input>
        <node-files value="exp.nod.xml"/>
        <edge-files value="exp.edg.xml"/>
        <connection-files value="exp.con.xml"/>
        <tllogic-files value="exp.tll.xml"/>
        <type-files value="exp.typ.xml"/>
    </input>

    <output>
        <output-file value="exp.net.xml"/>
    </output>

</configuration>
-->

<net version="1.9" junctionCornerDetail="5" limitTurnSpeed="5.50" xmlns:xsi="http://www.w3.org/2001/XMLSchema-instance" xsi:noNamespaceSchemaLocation="http://sumo.dlr.de/xsd/net_file.xsd">

    <location netOffset="75.00,75.00" convBoundary="0.00,0.00,550.00,550.00" origBoundary="-75.00,-75.00,475.00,475.00" projParameter="!"/>

    <type id="a" priority="2" numLanes="2" speed="20.00"/>
    <type id="b" priority="1" numLanes="1" speed="11.00"/>

    <edge id=":p_0_1_0" function="internal">
        <lane id=":p_0_1_0_0" index="0" speed="3.65" length="4.67" shape="0.00,76.60 -1.20,75.80 -1.60,75.00 -1.20,74.20 0.00,73.40"/>
    </edge>
    <edge id=":p_0_2_0" function="internal">
        <lane id=":p_0_2_0_0" index="0" speed="3.65" length="4.67" shape="0.00,276.60 -1.20,275.80 -1.60,275.00 -1.20,274.20 0.00,273.40"/>
    </edge>
    <edge id=":p_0_3_0" function="internal">
        <lane id=":p_0_3_0_0" index="0" speed="3.65" length="4.67" shape="0.00,476.60 -1.20,475.80 -1.60,475.00 -1.20,474.20 0.00,473.40"/>
    </edge>
    <edge id=":p_1_0_0" function="internal">
        <lane id=":p_1_0_0_0" index="0" speed="3.65" length="4.67" shape="73.40,0.00 74.20,-1.20 75.00,-1.60 75.80,-1.20 76.60,0.00"/>
    </edge>
    <edge id=":p_1_4_0" function="internal">
        <lane id=":p_1_4_0_0" index="0" speed="3.65" length="4.67" shape="76.60,550.00 75.80,551.20 75.00,551.60 74.20,551.20 73.40,550.00"/>
    </edge>
    <edge id=":p_2_0_0" function="internal">
        <lane id=":p_2_0_0_0" index="0" speed="3.65" length="4.67" shape="273.40,0.00 274.20,-1.20 275.00,-1.60 275.80,-1.20 276.60,0.00"/>
    </edge>
    <edge id=":p_2_4_0" function="internal">
        <lane id=":p_2_4_0_0" index="0" speed="3.65" length="4.67" shape="276.60,550.00 275.80,551.20 275.00,551.60 274.20,551.20 273.40,550.00"/>
    </edge>
    <edge id=":p_3_0_0" function="internal">
        <lane id=":p_3_0_0_0" index="0" speed="3.65" length="4.67" shape="473.40,0.00 474.20,-1.20 475.00,-1.60 475.80,-1.20 476.60,0.00"/>
    </edge>
    <edge id=":p_3_4_0" function="internal">
        <lane id=":p_3_4_0_0" index="0" speed="3.65" length="4.67" shape="476.60,550.00 475.80,551.20 475.00,551.60 474.20,551.20 473.40,550.00"/>
    </edge>
    <edge id=":p_4_1_0" function="internal">
        <lane id=":p_4_1_0_0" index="0" speed="3.65" length="4.67" shape="550.00,73.40 551.20,74.20 551.60,75.00 551.20,75.80 550.00,76.60"/>
    </edge>
    <edge id=":p_4_2_0" function="internal">
        <lane id=":p_4_2_0_0" index="0" speed="3.65" length="4.67" shape="550.00,273.40 551.20,274.20 551.60,275.00 551.20,275.80 550.00,276.60"/>
    </edge>
    <edge id=":p_4_3_0" function="internal">
        <lane id=":p_4_3_0_0" index="0" speed="3.65" length="4.67" shape="550.00,473.40 551.20,474.20 551.60,475.00 551.20,475.80 550.00,476.60"/>
    </edge>
    <edge id=":t_1_1_0" function="internal">
        <lane id=":t_1_1_0_0" index="0" speed="6.51" length="9.03" shape="73.40,85.40 73.05,82.95 72.00,81.20 70.25,80.15 67.80,79.80"/>
    </edge>
    <edge id=":t_1_1_1" function="internal">
        <lane id=":t_1_1_1_0" index="0" speed="11.00" length="20.80" shape="73.40,85.40 73.40,64.60"/>
    </edge>
    <edge id=":t_1_1_2" function="internal">
        <lane id=":t_1_1_2_0" index="0" speed="8.67" length="5.56" shape="73.40,85.40 73.95,80.15 74.06,79.89"/>
    </edge>
    <edge id=":t_1_1_12" function="internal">
        <lane id=":t_1_1_12_0" index="0" speed="8.67" length="11.29" shape="74.06,79.89 75.60,76.40 78.35,74.15 82.20,73.40"/>
    </edge>
    <edge id=":t_1_1_3" function="internal">
        <lane id=":t_1_1_3_0" index="0" speed="6.51" length="9.03" shape="82.20,79.80 79.75,80.15 78.00,81.20 76.95,82.95 76.60,85.40"/>
    </edge>
    <edge id=":t_1_1_4" function="internal">
        <lane id=":t_1_1_4_0" index="0" speed="20.00" length="14.40" shape="82.20,79.80 67.80,79.80"/>
    </edge>
    <edge id=":t_1_1_5" function="internal">
        <lane id=":t_1_1_5_0" index="0" speed="8.67" length="16.85" shape="82.20,76.60 78.35,75.85 75.60,73.60 73.95,69.85 73.40,64.60"/>
    </edge>
    <edge id=":t_1_1_6" function="internal">
        <lane id=":t_1_1_6_0" index="0" speed="6.51" length="9.03" shape="76.60,64.60 76.95,67.05 78.00,68.80 79.75,69.85 82.20,70.20"/>
    </edge>
    <edge id=":t_1_1_7" function="internal">
        <lane id=":t_1_1_7_0" index="0" speed="11.00" length="20.80" shape="76.60,64.60 76.60,85.40"/>
    </edge>
    <edge id=":t_1_1_8" function="internal">
        <lane id=":t_1_1_8_0" index="0" speed="8.67" length="5.56" shape="76.60,64.60 76.05,69.85 75.94,70.11"/>
    </edge>
    <edge id=":t_1_1_13" function="internal">
        <lane id=":t_1_1_13_0" index="0" speed="8.67" length="11.29" shape="75.94,70.11 74.40,73.60 71.65,75.85 67.80,76.60"/>
    </edge>
    <edge id=":t_1_1_9" function="internal">
        <lane id=":t_1_1_9_0" index="0" speed="6.51" length="9.03" shape="67.80,70.20 70.25,69.85 72.00,68.80 73.05,67.05 73.40,64.60"/>
    </edge>
    <edge id=":t_1_1_10" function="internal">
        <lane id=":t_1_1_10_0" index="0" speed="20.00" length="14.40" shape="67.80,70.20 82.20,70.20"/>
    </edge>
    <edge id=":t_1_1_11" function="internal">
        <lane id=":t_1_1_11_0" index="0" speed="8.67" length="16.85" shape="67.80,73.40 71.65,74.15 74.40,76.40 76.05,80.15 76.60,85.40"/>
    </edge>
    <edge id=":t_1_2_0" function="internal">
        <lane id=":t_1_2_0_0" index="0" speed="6.51" length="9.03" shape="73.40,285.40 73.05,282.95 72.00,281.20 70.25,280.15 67.80,279.80"/>
    </edge>
    <edge id=":t_1_2_1" function="internal">
        <lane id=":t_1_2_1_0" index="0" speed="11.00" length="20.80" shape="73.40,285.40 73.40,264.60"/>
    </edge>
    <edge id=":t_1_2_2" function="internal">
        <lane id=":t_1_2_2_0" index="0" speed="8.67" length="5.56" shape="73.40,285.40 73.95,280.15 74.06,279.89"/>
    </edge>
    <edge id=":t_1_2_12" function="internal">
        <lane id=":t_1_2_12_0" index="0" speed="8.67" length="11.29" shape="74.06,279.89 75.60,276.40 78.35,274.15 82.20,273.40"/>
    </edge>
    <edge id=":t_1_2_3" function="internal">
        <lane id=":t_1_2_3_0" index="0" speed="6.51" length="9.03" shape="82.20,279.80 79.75,280.15 78.00,281.20 76.95,282.95 76.60,285.40"/>
    </edge>
    <edge id=":t_1_2_4" function="internal">
        <lane id=":t_1_2_4_0" index="0" speed="20.00" length="14.40" shape="82.20,279.80 67.80,279.80"/>
    </edge>
    <edge id=":t_1_2_5" function="internal">
        <lane id=":t_1_2_5_0" index="0" speed="8.67" length="16.85" shape="82.20,276.60 78.35,275.85 75.60,273.60 73.95,269.85 73.40,264.60"/>
    </edge>
    <edge id=":t_1_2_6" function="internal">
        <lane id=":t_1_2_6_0" index="0" speed="6.51" length="9.03" shape="76.60,264.60 76.95,267.05 78.00,268.80 79.75,269.85 82.20,270.20"/>
    </edge>
    <edge id=":t_1_2_7" function="internal">
        <lane id=":t_1_2_7_0" index="0" speed="11.00" length="20.80" shape="76.60,264.60 76.60,285.40"/>
    </edge>
    <edge id=":t_1_2_8" function="internal">
        <lane id=":t_1_2_8_0" index="0" speed="8.67" length="5.56" shape="76.60,264.60 76.05,269.85 75.94,270.11"/>
    </edge>
    <edge id=":t_1_2_13" function="internal">
        <lane id=":t_1_2_13_0" index="0" speed="8.67" length="11.29" shape="75.94,270.11 74.40,273.60 71.65,275.85 67.80,276.60"/>
    </edge>
    <edge id=":t_1_2_9" function="internal">
        <lane id=":t_1_2_9_0" index="0" speed="6.51" length="9.03" shape="67.80,270.20 70.25,269.85 72.00,268.80 73.05,267.05 73.40,264.60"/>
    </edge>
    <edge id=":t_1_2_10" function="internal">
        <lane id=":t_1_2_10_0" index="0" speed="20.00" length="14.40" shape="67.80,270.20 82.20,270.20"/>
    </edge>
    <edge id=":t_1_2_11" function="internal">
        <lane id=":t_1_2_11_0" index="0" speed="8.67" length="16.85" shape="67.80,273.40 71.65,274.15 74.40,276.40 76.05,280.15 76.60,285.40"/>
    </edge>
    <edge id=":t_1_3_0" function="internal">
        <lane id=":t_1_3_0_0" index="0" speed="6.51" length="9.03" shape="73.40,485.40 73.05,482.95 72.00,481.20 70.25,480.15 67.80,479.80"/>
    </edge>
    <edge id=":t_1_3_1" function="internal">
        <lane id=":t_1_3_1_0" index="0" speed="11.00" length="20.80" shape="73.40,485.40 73.40,464.60"/>
    </edge>
    <edge id=":t_1_3_2" function="internal">
        <lane id=":t_1_3_2_0" index="0" speed="8.67" length="5.56" shape="73.40,485.40 73.95,480.15 74.06,479.89"/>
    </edge>
    <edge id=":t_1_3_12" function="internal">
        <lane id=":t_1_3_12_0" index="0" speed="8.67" length="11.29" shape="74.06,479.89 75.60,476.40 78.35,474.15 82.20,473.40"/>
    </edge>
    <edge id=":t_1_3_3" function="internal">
        <lane id=":t_1_3_3_0" index="0" speed="6.51" length="9.03" shape="82.20,479.80 79.75,480.15 78.00,481.20 76.95,482.95 76.60,485.40"/>
    </edge>
    <edge id=":t_1_3_4" function="internal">
        <lane id=":t_1_3_4_0" index="0" speed="20.00" length="14.40" shape="82.20,479.80 67.80,479.80"/>
    </edge>
    <edge id=":t_1_3_5" function="internal">
        <lane id=":t_1_3_5_0" index="0" speed="8.67" length="16.85" shape="82.20,476.60 78.35,475.85 75.60,473.60 73.95,469.85 73.40,464.60"/>
    </edge>
    <edge id=":t_1_3_6" function="internal">
        <lane id=":t_1_3_6_0" index="0" speed="6.51" length="9.03" shape="76.60,464.60 76.95,467.05 78.00,468.80 79.75,469.85 82.20,470.20"/>
    </edge>
    <edge id=":t_1_3_7" function="internal">
        <lane id=":t_1_3_7_0" index="0" speed="11.00" length="20.80" shape="76.60,464.60 76.60,485.40"/>
    </edge>
    <edge id=":t_1_3_8" function="internal">
        <lane id=":t_1_3_8_0" index="0" speed="8.67" length="5.56" shape="76.60,464.60 76.05,469.85 75.94,470.11"/>
    </edge>
    <edge id=":t_1_3_13" function="internal">
        <lane id=":t_1_3_13_0" index="0" speed="8.67" length="11.29" shape="75.94,470.11 74.40,473.60 71.65,475.85 67.80,476.60"/>
    </edge>
    <edge id=":t_1_3_9" function="internal">
        <lane id=":t_1_3_9_0" index="0" speed="6.51" length="9.03" shape="67.80,470.20 70.25,469.85 72.00,468.80 73.05,467.05 73.40,464.60"/>
    </edge>
    <edge id=":t_1_3_10" function="internal">
        <lane id=":t_1_3_10_0" index="0" speed="20.00" length="14.40" shape="67.80,470.20 82.20,470.20"/>
    </edge>
    <edge id=":t_1_3_11" function="internal">
        <lane id=":t_1_3_11_0" index="0" speed="8.67" length="16.85" shape="67.80,473.40 71.65,474.15 74.40,476.40 76.05,480.15 76.60,485.40"/>
    </edge>
    <edge id=":t_2_1_0" function="internal">
        <lane id=":t_2_1_0_0" index="0" speed="6.51" length="9.03" shape="273.40,85.40 273.05,82.95 272.00,81.20 270.25,80.15 267.80,79.80"/>
    </edge>
    <edge id=":t_2_1_1" function="internal">
        <lane id=":t_2_1_1_0" index="0" speed="11.00" length="20.80" shape="273.40,85.40 273.40,64.60"/>
    </edge>
    <edge id=":t_2_1_2" function="internal">
        <lane id=":t_2_1_2_0" index="0" speed="8.67" length="5.56" shape="273.40,85.40 273.95,80.15 274.06,79.89"/>
    </edge>
    <edge id=":t_2_1_12" function="internal">
        <lane id=":t_2_1_12_0" index="0" speed="8.67" length="11.29" shape="274.06,79.89 275.60,76.40 278.35,74.15 282.20,73.40"/>
    </edge>
    <edge id=":t_2_1_3" function="internal">
        <lane id=":t_2_1_3_0" index="0" speed="6.51" length="9.03" shape="282.20,79.80 279.75,80.15 278.00,81.20 276.95,82.95 276.60,85.40"/>
    </edge>
    <edge id=":t_2_1_4" function="internal">
        <lane id=":t_2_1_4_0" index="0" speed="20.00" length="14.40" shape="282.20,79.80 267.80,79.80"/>
    </edge>
    <edge id=":t_2_1_5" function="internal">
        <lane id=":t_2_1_5_0" index="0" speed="8.67" length="16.85" shape="282.20,76.60 278.35,75.85 275.60,73.60 273.95,69.85 273.40,64.60"/>
    </edge>
    <edge id=":t_2_1_6" function="internal">
        <lane id=":t_2_1_6_0" index="0" speed="6.51" length="9.03" shape="276.60,64.60 276.95,67.05 278.00,68.80 279.75,69.85 282.20,70.20"/>
    </edge>
    <edge id=":t_2_1_7" function="internal">
        <lane id=":t_2_1_7_0" index="0" speed="11.00" length="20.80" shape="276.60,64.60 276.60,85.40"/>
    </edge>
    <edge id=":t_2_1_8" function="internal">
        <lane id=":t_2_1_8_0" index="0" speed="8.67" length="5.56" shape="276.60,64.60 276.05,69.85 275.94,70.11"/>
    </edge>
    <edge id=":t_2_1_13" function="internal">
        <lane id=":t_2_1_13_0" index="0" speed="8.67" length="11.29" shape="275.94,70.11 274.40,73.60 271.65,75.85 267.80,76.60"/>
    </edge>
    <edge id=":t_2_1_9" function="internal">
        <lane id=":t_2_1_9_0" index="0" speed="6.51" length="9.03" shape="267.80,70.20 270.25,69.85 272.00,68.80 273.05,67.05 273.40,64.60"/>
    </edge>
    <edge id=":t_2_1_10" function="internal">
        <lane id=":t_2_1_10_0" index="0" speed="20.00" length="14.40" shape="267.80,70.20 282.20,70.20"/>
    </edge>
    <edge id=":t_2_1_11" function="internal">
        <lane id=":t_2_1_11_0" index="0" speed="8.67" length="16.85" shape="267.80,73.40 271.65,74.15 274.40,76.40 276.05,80.15 276.60,85.40"/>
    </edge>
    <edge id=":t_2_2_0" function="internal">
        <lane id=":t_2_2_0_0" index="0" speed="6.51" length="9.03" shape="273.40,285.40 273.05,282.95 272.00,281.20 270.25,280.15 267.80,279.80"/>
    </edge>
    <edge id=":t_2_2_1" function="internal">
        <lane id=":t_2_2_1_0" index="0" speed="11.00" length="20.80" shape="273.40,285.40 273.40,264.60"/>
    </edge>
    <edge id=":t_2_2_2" function="internal">
        <lane id=":t_2_2_2_0" index="0" speed="8.67" length="5.56" shape="273.40,285.40 273.95,280.15 274.06,279.89"/>
    </edge>
    <edge id=":t_2_2_12" function="internal">
        <lane id=":t_2_2_12_0" index="0" speed="8.67" length="11.29" shape="274.06,279.89 275.60,276.40 278.35,274.15 282.20,273.40"/>
    </edge>
    <edge id=":t_2_2_3" function="internal">
        <lane id=":t_2_2_3_0" index="0" speed="6.51" length="9.03" shape="282.20,279.80 279.75,280.15 278.00,281.20 276.95,282.95 276.60,285.40"/>
    </edge>
    <edge id=":t_2_2_4" function="internal">
        <lane id=":t_2_2_4_0" index="0" speed="20.00" length="14.40" shape="282.20,279.80 267.80,279.80"/>
    </edge>
    <edge id=":t_2_2_5" function="internal">
        <lane id=":t_2_2_5_0" index="0" speed="8.67" length="16.85" shape="282.20,276.60 278.35,275.85 275.60,273.60 273.95,269.85 273.40,264.60"/>
    </edge>
    <edge id=":t_2_2_6" function="internal">
        <lane id=":t_2_2_6_0" index="0" speed="6.51" length="9.03" shape="276.60,264.60 276.95,267.05 278.00,268.80 279.75,269.85 282.20,270.20"/>
    </edge>
    <edge id=":t_2_2_7" function="internal">
        <lane id=":t_2_2_7_0" index="0" speed="11.00" length="20.80" shape="276.60,264.60 276.60,285.40"/>
    </edge>
    <edge id=":t_2_2_8" function="internal">
        <lane id=":t_2_2_8_0" index="0" speed="8.67" length="5.56" shape="276.60,264.60 276.05,269.85 275.94,270.11"/>
    </edge>
    <edge id=":t_2_2_13" function="internal">
        <lane id=":t_2_2_13_0" index="0" speed="8.67" length="11.29" shape="275.94,270.11 274.40,273.60 271.65,275.85 267.80,276.60"/>
    </edge>
    <edge id=":t_2_2_9" function="internal">
        <lane id=":t_2_2_9_0" index="0" speed="6.51" length="9.03" shape="267.80,270.20 270.25,269.85 272.00,268.80 273.05,267.05 273.40,264.60"/>
    </edge>
    <edge id=":t_2_2_10" function="internal">
        <lane id=":t_2_2_10_0" index="0" speed="20.00" length="14.40" shape="267.80,270.20 282.20,270.20"/>
    </edge>
    <edge id=":t_2_2_11" function="internal">
        <lane id=":t_2_2_11_0" index="0" speed="8.67" length="16.85" shape="267.80,273.40 271.65,274.15 274.40,276.40 276.05,280.15 276.60,285.40"/>
    </edge>
    <edge id=":t_2_3_0" function="internal">
        <lane id=":t_2_3_0_0" index="0" speed="6.51" length="9.03" shape="273.40,485.40 273.05,482.95 272.00,481.20 270.25,480.15 267.80,479.80"/>
    </edge>
    <edge id=":t_2_3_1" function="internal">
        <lane id=":t_2_3_1_0" index="0" speed="11.00" length="20.80" shape="273.40,485.40 273.40,464.60"/>
    </edge>
    <edge id=":t_2_3_2" function="internal">
        <lane id=":t_2_3_2_0" index="0" speed="8.67" length="5.56" shape="273.40,485.40 273.95,480.15 274.06,479.89"/>
    </edge>
    <edge id=":t_2_3_12" function="internal">
        <lane id=":t_2_3_12_0" index="0" speed="8.67" length="11.29" shape="274.06,479.89 275.60,476.40 278.35,474.15 282.20,473.40"/>
    </edge>
    <edge id=":t_2_3_3" function="internal">
        <lane id=":t_2_3_3_0" index="0" speed="6.51" length="9.03" shape="282.20,479.80 279.75,480.15 278.00,481.20 276.95,482.95 276.60,485.40"/>
    </edge>
    <edge id=":t_2_3_4" function="internal">
        <lane id=":t_2_3_4_0" index="0" speed="20.00" length="14.40" shape="282.20,479.80 267.80,479.80"/>
    </edge>
    <edge id=":t_2_3_5" function="internal">
        <lane id=":t_2_3_5_0" index="0" speed="8.67" length="16.85" shape="282.20,476.60 278.35,475.85 275.60,473.60 273.95,469.85 273.40,464.60"/>
    </edge>
    <edge id=":t_2_3_6" function="internal">
        <lane id=":t_2_3_6_0" index="0" speed="6.51" length="9.03" shape="276.60,464.60 276.95,467.05 278.00,468.80 279.75,469.85 282.20,470.20"/>
    </edge>
    <edge id=":t_2_3_7" function="internal">
        <lane id=":t_2_3_7_0" index="0" speed="11.00" length="20.80" shape="276.60,464.60 276.60,485.40"/>
    </edge>
    <edge id=":t_2_3_8" function="internal">
        <lane id=":t_2_3_8_0" index="0" speed="8.67" length="5.56" shape="276.60,464.60 276.05,469.85 275.94,470.11"/>
    </edge>
    <edge id=":t_2_3_13" function="internal">
        <lane id=":t_2_3_13_0" index="0" speed="8.67" length="11.29" shape="275.94,470.11 274.40,473.60 271.65,475.85 267.80,476.60"/>
    </edge>
    <edge id=":t_2_3_9" function="internal">
        <lane id=":t_2_3_9_0" index="0" speed="6.51" length="9.03" shape="267.80,470.20 270.25,469.85 272.00,468.80 273.05,467.05 273.40,464.60"/>
    </edge>
    <edge id=":t_2_3_10" function="internal">
        <lane id=":t_2_3_10_0" index="0" speed="20.00" length="14.40" shape="267.80,470.20 282.20,470.20"/>
    </edge>
    <edge id=":t_2_3_11" function="internal">
        <lane id=":t_2_3_11_0" index="0" speed="8.67" length="16.85" shape="267.80,473.40 271.65,474.15 274.40,476.40 276.05,480.15 276.60,485.40"/>
    </edge>
    <edge id=":t_3_1_0" function="internal">
        <lane id=":t_3_1_0_0" index="0" speed="6.51" length="9.03" shape="473.40,85.40 473.05,82.95 472.00,81.20 470.25,80.15 467.80,79.80"/>
    </edge>
    <edge id=":t_3_1_1" function="internal">
        <lane id=":t_3_1_1_0" index="0" speed="11.00" length="20.80" shape="473.40,85.40 473.40,64.60"/>
    </edge>
    <edge id=":t_3_1_2" function="internal">
        <lane id=":t_3_1_2_0" index="0" speed="8.67" length="5.56" shape="473.40,85.40 473.95,80.15 474.06,79.89"/>
    </edge>
    <edge id=":t_3_1_12" function="internal">
        <lane id=":t_3_1_12_0" index="0" speed="8.67" length="11.29" shape="474.06,79.89 475.60,76.40 478.35,74.15 482.20,73.40"/>
    </edge>
    <edge id=":t_3_1_3" function="internal">
        <lane id=":t_3_1_3_0" index="0" speed="6.51" length="9.03" shape="482.20,79.80 479.75,80.15 478.00,81.20 476.95,82.95 476.60,85.40"/>
    </edge>
    <edge id=":t_3_1_4" function="internal">
        <lane id=":t_3_1_4_0" index="0" speed="20.00" length="14.40" shape="482.20,79.80 467.80,79.80"/>
    </edge>
    <edge id=":t_3_1_5" function="internal">
        <lane id=":t_3_1_5_0" index="0" speed="8.67" length="16.85" shape="482.20,76.60 478.35,75.85 475.60,73.60 473.95,69.85 473.40,64.60"/>
    </edge>
    <edge id=":t_3_1_6" function="internal">
        <lane id=":t_3_1_6_0" index="0" speed="6.51" length="9.03" shape="476.60,64.60 476.95,67.05 478.00,68.80 479.75,69.85 482.20,70.20"/>
    </edge>
    <edge id=":t_3_1_7" function="internal">
        <lane id=":t_3_1_7_0" index="0" speed="11.00" length="20.80" shape="476.60,64.60 476.60,85.40"/>
    </edge>
    <edge id=":t_3_1_8" function="internal">
        <lane id=":t_3_1_8_0" index="0" speed="8.67" length="5.56" shape="476.60,64.60 476.05,69.85 475.94,70.11"/>
    </edge>
    <edge id=":t_3_1_13" function="internal">
        <lane id=":t_3_1_13_0" index="0" speed="8.67" length="11.29" shape="475.94,70.11 474.40,73.60 471.65,75.85 467.80,76.60"/>
    </edge>
    <edge id=":t_3_1_9" function="internal">
        <lane id=":t_3_1_9_0" index="0" speed="6.51" length="9.03" shape="467.80,70.20 470.25,69.85 472.00,68.80 473.05,67.05 473.40,64.60"/>
    </edge>
    <edge id=":t_3_1_10" function="internal">
        <lane id=":t_3_1_10_0" index="0" speed="20.00" length="14.40" shape="467.80,70.20 482.20,70.20"/>
    </edge>
    <edge id=":t_3_1_11" function="internal">
        <lane id=":t_3_1_11_0" index="0" speed="8.67" length="16.85" shape="467.80,73.40 471.65,74.15 474.40,76.40 476.05,80.15 476.60,85.40"/>
    </edge>
    <edge id=":t_3_2_0" function="internal">
        <lane id=":t_3_2_0_0" index="0" speed="6.51" length="9.03" shape="473.40,285.40 473.05,282.95 472.00,281.20 470.25,280.15 467.80,279.80"/>
    </edge>
    <edge id=":t_3_2_1" function="internal">
        <lane id=":t_3_2_1_0" index="0" speed="11.00" length="20.80" shape="473.40,285.40 473.40,264.60"/>
    </edge>
    <edge id=":t_3_2_2" function="internal">
        <lane id=":t_3_2_2_0" index="0" speed="8.67" length="5.56" shape="473.40,285.40 473.95,280.15 474.06,279.89"/>
    </edge>
    <edge id=":t_3_2_12" function="internal">
        <lane id=":t_3_2_12_0" index="0" speed="8.67" length="11.29" shape="474.06,279.89 475.60,276.40 478.35,274.15 482.20,273.40"/>
    </edge>
    <edge id=":t_3_2_3" function="internal">
        <lane id=":t_3_2_3_0" index="0" speed="6.51" length="9.03" shape="482.20,279.80 479.75,280.15 478.00,281.20 476.95,282.95 476.60,285.40"/>
    </edge>
    <edge id=":t_3_2_4" function="internal">
        <lane id=":t_3_2_4_0" index="0" speed="20.00" length="14.40" shape="482.20,279.80 467.80,279.80"/>
    </edge>
    <edge id=":t_3_2_5" function="internal">
        <lane id=":t_3_2_5_0" index="0" speed="8.67" length="16.85" shape="482.20,276.60 478.35,275.85 475.60,273.60 473.95,269.85 473.40,264.60"/>
    </edge>
    <edge id=":t_3_2_6" function="internal">
        <lane id=":t_3_2_6_0" index="0" speed="6.51" length="9.03" shape="476.60,264.60 476.95,267.05 478.00,268.80 479.75,269.85 482.20,270.20"/>
    </edge>
    <edge id=":t_3_2_7" function="internal">
        <lane id=":t_3_2_7_0" index="0" speed="11.00" length="20.80" shape="476.60,264.60 476.60,285.40"/>
    </edge>
    <edge id=":t_3_2_8" function="internal">
        <lane id=":t_3_2_8_0" index="0" speed="8.67" length="5.56" shape="476.60,264.60 476.05,269.85 475.94,270.11"/>
    </edge>
    <edge id=":t_3_2_13" function="internal">
        <lane id=":t_3_2_13_0" index="0" speed="8.67" length="11.29" shape="475.94,270.11 474.40,273.60 471.65,275.85 467.80,276.60"/>
    </edge>
    <edge id=":t_3_2_9" function="internal">
        <lane id=":t_3_2_9_0" index="0" speed="6.51" length="9.03" shape="467.80,270.20 470.25,269.85 472.00,268.80 473.05,267.05 473.40,264.60"/>
    </edge>
    <edge id=":t_3_2_10" function="internal">
        <lane id=":t_3_2_10_0" index="0" speed="20.00" length="14.40" shape="467.80,270.20 482.20,270.20"/>
    </edge>
    <edge id=":t_3_2_11" function="internal">
        <lane id=":t_3_2_11_0" index="0" speed="8.67" length="16.85" shape="467.80,273.40 471.65,274.15 474.40,276.40 476.05,280.15 476.60,285.40"/>
    </edge>
    <edge id=":t_3_3_0" function="internal">
        <lane id=":t_3_3_0_0" index="0" speed="6.51" length="9.03" shape="473.40,485.40 473.05,482.95 472.00,481.20 470.25,480.15 467.80,479.80"/>
    </edge>
    <edge id=":t_3_3_1" function="internal">
        <lane id=":t_3_3_1_0" index="0" speed="11.00" length="20.80" shape="473.40,485.40 473.40,464.60"/>
    </edge>
    <edge id=":t_3_3_2" function="internal">
        <lane id=":t_3_3_2_0" index="0" speed="8.67" length="5.56" shape="473.40,485.40 473.95,480.15 474.06,479.89"/>
    </edge>
    <edge id=":t_3_3_12" function="internal">
        <lane id=":t_3_3_12_0" index="0" speed="8.67" length="11.29" shape="474.06,479.89 475.60,476.40 478.35,474.15 482.20,473.40"/>
    </edge>
    <edge id=":t_3_3_3" function="internal">
        <lane id=":t_3_3_3_0" index="0" speed="6.51" length="9.03" shape="482.20,479.80 479.75,480.15 478.00,481.20 476.95,482.95 476.60,485.40"/>
    </edge>
    <edge id=":t_3_3_4" function="internal">
        <lane id=":t_3_3_4_0" index="0" speed="20.00" length="14.40" shape="482.20,479.80 467.80,479.80"/>
    </edge>
    <edge id=":t_3_3_5" function="internal">
        <lane id=":t_3_3_5_0" index="0" speed="8.67" length="16.85" shape="482.20,476.60 478.35,475.85 475.60,473.60 473.95,469.85 473.40,464.60"/>
    </edge>
    <edge id=":t_3_3_6" function="internal">
        <lane id=":t_3_3_6_0" index="0" speed="6.51" length="9.03" shape="476.60,464.60 476.95,467.05 478.00,468.80 479.75,469.85 482.20,470.20"/>
    </edge>
    <edge id=":t_3_3_7" function="internal">
        <lane id=":t_3_3_7_0" index="0" speed="11.00" length="20.80" shape="476.60,464.60 476.60,485.40"/>
    </edge>
    <edge id=":t_3_3_8" function="internal">
        <lane id=":t_3_3_8_0" index="0" speed="8.67" length="5.56" shape="476.60,464.60 476.05,469.85 475.94,470.11"/>
    </edge>
    <edge id=":t_3_3_13" function="internal">
        <lane id=":t_3_3_13_0" index="0" speed="8.67" length="11.29" shape="475.94,470.11 474.40,473.60 471.65,475.85 467.80,476.60"/>
    </edge>
    <edge id=":t_3_3_9" function="internal">
        <lane id=":t_3_3_9_0" index="0" speed="6.51" length="9.03" shape="467.80,470.20 470.25,469.85 472.00,468.80 473.05,467.05 473.40,464.60"/>
    </edge>
    <edge id=":t_3_3_10" function="internal">
        <lane id=":t_3_3_10_0" index="0" speed="20.00" length="14.40" shape="467.80,470.20 482.20,470.20"/>
    </edge>
    <edge id=":t_3_3_11" function="internal">
        <lane id=":t_3_3_11_0" index="0" speed="8.67" length="16.85" shape="467.80,473.40 471.65,474.15 474.40,476.40 476.05,480.15 476.60,485.40"/>
    </edge>

    <edge id="p_0_1-t_1_1" from="p_0_1" to="t_1_1" priority="2" type="a">
        <lane id="p_0_1-t_1_1_0" index="0" speed="20.00" length="67.80" shape="0.00,70.20 67.80,70.20"/>
        <lane id="p_0_1-t_1_1_1" index="1" speed="20.00" length="67.80" shape="0.00,73.40 67.80,73.40"/>
    </edge>
    <edge id="p_0_2-t_1_2" from="p_0_2" to="t_1_2" priority="2" type="a">
        <lane id="p_0_2-t_1_2_0" index="0" speed="20.00" length="67.80" shape="0.00,270.20 67.80,270.20"/>
        <lane id="p_0_2-t_1_2_1" index="1" speed="20.00" length="67.80" shape="0.00,273.40 67.80,273.40"/>
    </edge>
    <edge id="p_0_3-t_1_3" from="p_0_3" to="t_1_3" priority="2" type="a">
        <lane id="p_0_3-t_1_3_0" index="0" speed="20.00" length="67.80" shape="0.00,470.20 67.80,470.20"/>
        <lane id="p_0_3-t_1_3_1" index="1" speed="20.00" length="67.80" shape="0.00,473.40 67.80,473.40"/>
    </edge>
    <edge id="p_1_0-t_1_1" from="p_1_0" to="t_1_1" priority="1" type="b">
        <lane id="p_1_0-t_1_1_0" index="0" speed="11.00" length="64.60" shape="76.60,0.00 76.60,64.60"/>
    </edge>
    <edge id="p_1_4-t_1_3" from="p_1_4" to="t_1_3" priority="1" type="b">
        <lane id="p_1_4-t_1_3_0" index="0" speed="11.00" length="64.60" shape="73.40,550.00 73.40,485.40"/>
    </edge>
    <edge id="p_2_0-t_2_1" from="p_2_0" to="t_2_1" priority="1" type="b">
        <lane id="p_2_0-t_2_1_0" index="0" speed="11.00" length="64.60" shape="276.60,0.00 276.60,64.60"/>
    </edge>
    <edge id="p_2_4-t_2_3" from="p_2_4" to="t_2_3" priority="1" type="b">
        <lane id="p_2_4-t_2_3_0" index="0" speed="11.00" length="64.60" shape="273.40,550.00 273.40,485.40"/>
    </edge>
    <edge id="p_3_0-t_3_1" from="p_3_0" to="t_3_1" priority="1" type="b">
        <lane id="p_3_0-t_3_1_0" index="0" speed="11.00" length="64.60" shape="476.60,0.00 476.60,64.60"/>
    </edge>
    <edge id="p_3_4-t_3_3" from="p_3_4" to="t_3_3" priority="1" type="b">
        <lane id="p_3_4-t_3_3_0" index="0" speed="11.00" length="64.60" shape="473.40,550.00 473.40,485.40"/>
    </edge>
    <edge id="p_4_1-t_3_1" from="p_4_1" to="t_3_1" priority="2" type="a">
        <lane id="p_4_1-t_3_1_0" index="0" speed="20.00" length="67.80" shape="550.00,79.80 482.20,79.80"/>
        <lane id="p_4_1-t_3_1_1" index="1" speed="20.00" length="67.80" shape="550.00,76.60 482.20,76.60"/>
    </edge>
    <edge id="p_4_2-t_3_2" from="p_4_2" to="t_3_2" priority="2" type="a">
        <lane id="p_4_2-t_3_2_0" index="0" speed="20.00" length="67.80" shape="550.00,279.80 482.20,279.80"/>
        <lane id="p_4_2-t_3_2_1" index="1" speed="20.00" length="67.80" shape="550.00,276.60 482.20,276.60"/>
    </edge>
    <edge id="p_4_3-t_3_3" from="p_4_3" to="t_3_3" priority="2" type="a">
        <lane id="p_4_3-t_3_3_0" index="0" speed="20.00" length="67.80" shape="550.00,479.80 482.20,479.80"/>
        <lane id="p_4_3-t_3_3_1" index="1" speed="20.00" length="67.80" shape="550.00,476.60 482.20,476.60"/>
    </edge>
    <edge id="t_1_1-p_0_1" from="t_1_1" to="p_0_1" priority="2" type="a">
        <lane id="t_1_1-p_0_1_0" index="0" speed="20.00" length="67.80" shape="67.80,79.80 0.00,79.80"/>