<routes>
  <vType id="type1" length="5" accel="5" minGap="2.5" decel="10"/>
  <vType id="emergency" length="5" accel="5"  minGap="2.5"  vClass="emergency" guiShape="emergency"/>
  <flow id="emergency" departPos="random_free" from="p_0_1-t_1_1" to="t_3_3-p_4_3" begin="0" end="3000" vehsPerHour="30" type="emergency"/>
  <flow id="f_0_0" departPos="random_free" from="p_1_4-t_1_3" to="t_3_1-p_3_0" begin="0" end="300" vehsPerHour="12" type="type1"/>
  <flow id="f_0_1" departPos="random_free" from="p_2_4-t_2_3" to="t_2_1-p_2_0" begin="0" end="300" vehsPerHour="12" type="type1"/>
  <flow id="f_0_2" departPos="random_free" from="p_3_4-t_3_3" to="t_1_1-p_1_0" begin="0" end="300" vehsPerHour="12" type="type1"/>
  <flow id="f_0_3" departPos="random_free" from="p_0_1-t_1_1" to="t_3_3-p_4_3" begin="0" end="300" vehsPerHour="20" type="type1"/>
  <flow id="f_0_4" departPos="random_free" from="p_0_2-t_1_2" to="t_3_2-p_4_2" begin="0" end="300" vehsPerHour="20" type="type1"/>
  <flow id="f_0_5" departPos="random_free" from="p_0_3-t_1_3" to="t_3_1-p_4_1" begin="0" end="300" vehsPerHour="20" type="type1"/>
  <flow id="f_1_0" departPos="random_free" from="p_1_4-t_1_3" to="t_3_1-p_3_0" begin="300" end="600" vehsPerHour="21" type="type1"/>
  <flow id="f_1_1" departPos="random_free" from="p_2_4-t_2_3" to="t_2_1-p_2_0" begin="300" end="600" vehsPerHour="21" type="type1"/>
  <flow id="f_1_2" departPos="random_free" from="p_3_4-t_3_3" to="t_1_1-p_1_0" begin="300" end="600" vehsPerHour="21" type="type1"/>
  <flow id="f_1_3" departPos="random_free" from="p_0_1-t_1_1" to="t_3_3-p_4_3" begin="300" end="600" vehsPerHour="35" type="type1"/>
  <flow id="f_1_4" departPos="random_free" from="p_0_2-t_1_2" to="t_3_2-p_4_2" begin="300" end="600" vehsPerHour="35" type="type1"/>
  <flow id="f_1_5" departPos="random_free" from="p_0_3-t_1_3" to="t_3_1-p_4_1" begin="300" end="600" vehsPerHour="35" type="type1"/>
  <flow id="f_2_0" departPos="random_free" from="p_1_4-t_1_3" to="t_3_1-p_3_0" begin="600" end="900" vehsPerHour="27" type="type1"/>
  <flow id="f_2_1" departPos="random_free" from="p_2_4-t_2_3" to="t_2_1-p_2_0" begin="600" end="900" vehsPerHour="27" type="type1"/>
  <flow id="f_2_2" departPos="random_free" from="p_3_4-t_3_3" to="t_1_1-p_1_0" begin="600" end="900" vehsPerHour="27" type="type1"/>
  <flow id="f_2_3" departPos="random_free" from="p_0_1-t_1_1" to="t_3_3-p_4_3" begin="600" end="900" vehsPerHour="45" type="type1"/>
  <flow id="f_2_4" departPos="random_free" from="p_0_2-t_1_2" to="t_3_2-p_4_2" begin="600" end="900" vehsPerHour="45" type="type1"/>
  <flow id="f_2_5" departPos="random_free" from="p_0_3-t_1_3" to="t_3_1-p_4_1" begin="600" end="900" vehsPerHour="45" type="type1"/>
  <flow id="f_3_0" departPos="random_free" from="p_1_4-t_1_3" to="t_3_1-p_3_0" begin="900" end="1200" vehsPerHour="30" type="type1"/>
  <flow id="f_3_1" departPos="random_free" from="p_2_4-t_2_3" to="t_2_1-p_2_0" begin="900" end="1200" vehsPerHour="30" type="type1"/>
  <flow id="f_3_2" departPos="random_free" from="p_3_4-t_3_3" to="t_1_1-p_1_0" begin="900" end="1200" vehsPerHour="30" type="type1"/>
  <flow id="f_3_3" departPos="random_free" from="p_0_1-t_1_1" to="t_3_3-p_4_3" begin="900" end="1200" vehsPerHour="50" type="type1"/>
  <flow id="f_3_4" departPos="random_free" from="p_0_2-t_1_2" to="t_3_2-p_4_2" begin="900" end="1200" vehsPerHour="50" type="type1"/>
  <flow id="f_3_5" departPos="random_free" from="p_0_3-t_1_3" to="t_3_1-p_4_1" begin="900" end="1200" vehsPerHour="50" type="type1"/>
  <flow id="f_4_0" departPos="random_free" from="p_1_4-t_1_3" to="t_3_1-p_3_0" begin="1200" end="1500" vehsPerHour="22" type="type1"/>
  <flow id="f_4_1" departPos="random_free" from="p_2_4-t_2_3" to="t_2_1-p_2_0" begin="1200" end="1500" vehsPerHour="22" type="type1"/>
  <flow id="f_4_2" departPos="random_free" from="p_3_4-t_3_3" to="t_1_1-p_1_0" begin="1200" end="1500" vehsPerHour="22" type="type1"/>
  <flow id="f_4_3" departPos="random_free" from="p_0_1-t_1_1" to="t_3_3-p_4_3" begin="1200" end="1500" vehsPerHour="37" type="type1"/>
  <flow id="f_4_4" departPos="random_free" from="p_0_2-t_1_2" to="t_3_2-p_4_2" begin="1200" end="1500" vehsPerHour="37" type="type1"/>
  <flow id="f_4_5" departPos="random_free" from="p_0_3-t_1_3" to="t_3_1-p_4_1" begin="1200" end="1500" vehsPerHour="37" type="type1"/>
  <flow id="f_5_0" departPos="random_free" from="p_1_4-t_1_3" to="t_3_1-p_3_0" begin="1500" end="1800" vehsPerHour="15" type="type1"/>
  <flow id="f_5_1" departPos="random_free" from="p_2_4-t_2_3" to="t_2_1-p_2_0" begin="1500" end="1800" vehsPerHour="15" type="type1"/>
  <flow id="f_5_2" departPos="random_free" from="p_3_4-t_3_3" to="t_1_1-p_1_0" begin="1500" end="1800" vehsPerHour="15" type="type1"/>
  <flow id="f_5_3" departPos="random_free" from="p_0_1-t_1_1" to="t_3_3-p_4_3" begin="1500" end="1800" vehsPerHour="25" type="type1"/>
  <flow id="f_5_4" departPos="random_free" from="p_0_2-t_1_2" to="t_3_2-p_4_2" begin="1500" end="1800" vehsPerHour="25" type="type1"/>
  <flow id="f_5_5" departPos="random_free" from="p_0_3-t_1_3" to="t_3_1-p_4_1" begin="1500" end="1800" vehsPerHour="25" type="type1"/>
  <flow id="f_6_0" departPos="random_free" from="p_1_4-t_1_3" to="t_3_1-p_3_0" begin="1800" end="2100" vehsPerHour="7" type="type1"/>
  <flow id="f_6_1" departPos="random_free" from="p_2_4-t_2_3" to="t_2_1-p_2_0" begin="1800" end="2100" vehsPerHour="7" type="type1"/>
  <flow id="f_6_2" departPos="random_free" from="p_3_4-t_3_3" to="t_1_1-p_1_0" begin="1800" end="2100" vehsPerHour="7" type="type1"/>
  <flow id="f_6_3" departPos="random_free" from="p_0_1-t_1_1" to="t_3_3-p_4_3" begin="1800" end="2100" vehsPerHour="12" type="type1"/>
  <flow id="f_6_4" departPos="random_free" from="p_0_2-t_1_2" to="t_3_2-p_4_2" begin="1800" end="2100" vehsPerHour="12" type="type1"/>
  <flow id="f_6_5" departPos="random_free" from="p_0_3-t_1_3" to="t_3_1-p_4_1" begin="1800" end="2100" vehsPerHour="12" type="type1"/>
</routes>
