<additional>
  <tlLogic id="t_1_1" programID="0" offset="0" type="static">
    <phase duration="30" state="GGgrrrGGgrrr"/>
    <phase duration="3" state="yyyrrryyyrrr"/>
    <phase duration="30" state="rrrGrGrrrGrG"/>
    <phase duration="3" state="rrrGryrrrGry"/>
    <phase duration="30" state="rrrGGrrrrGGr"/>
    <phase duration="3" state="rrryyrrrryyr"/>
  </tlLogic>
  <tlLogic id="t_1_2" programID="0" offset="0" type="static">
    <phase duration="30" state="GGgrrrGGgrrr"/>
    <phase duration="3" state="yyyrrryyyrrr"/>
    <phase duration="30" state="rrrGrGrrrGrG"/>
    <phase duration="3" state="rrrGryrrrGry"/>
    <phase duration="30" state="rrrGGrrrrGGr"/>
    <phase duration="3" state="rrryyrrrryyr"/>
  </tlLogic>
  <tlLogic id="t_1_3" programID="0" offset="0" type="static">
    <phase duration="30" state="GGgrrrGGgrrr"/>
    <phase duration="3" state="yyyrrryyyrrr"/>
    <phase duration="30" state="rrrGrGrrrGrG"/>
    <phase duration="3" state="rrrGryrrrGry"/>
    <phase duration="30" state="rrrGGrrrrGGr"/>
    <phase duration="3" state="rrryyrrrryyr"/>
  </tlLogic>
  <tlLogic id="t_2_1" programID="0" offset="0" type="static">
    <phase duration="30" state="GGgrrrGGgrrr"/>
    <phase duration="3" state="yyyrrryyyrrr"/>
    <phase duration="30" state="rrrGrGrrrGrG"/>
    <phase duration="3" state="rrrGryrrrGry"/>
    <phase duration="30" state="rrrGGrrrrGGr"/>
    <phase duration="3" state="rrryyrrrryyr"/>
  </tlLogic>
  <tlLogic id="t_2_2" programID="0" offset="0" type="static">
    <phase duration="30" state="GGgrrrGGgrrr"/>
    <phase duration="3" state="yyyrrryyyrrr"/>
    <phase duration="30" state="rrrGrGrrrGrG"/>
    <phase duration="3" state="rrrGryrrrGry"/>
    <phase duration="30" state="rrrGGrrrrGGr"/>
    <phase duration="3" state="rrryyrrrryyr"/>
  </tlLogic>
  <tlLogic id="t_2_3" programID="0" offset="0" type="static">
    <phase duration="30" state="GGgrrrGGgrrr"/>
    <phase duration="3" state="yyyrrryyyrrr"/>
    <phase duration="30" state="rrrGrGrrrGrG"/>
    <phase duration="3" state="rrrGryrrrGry"/>
    <phase duration="30" state="rrrGGrrrrGGr"/>
    <phase duration="3" state="rrryyrrrryyr"/>
  </tlLogic>
  <tlLogic id="t_3_1" programID="0" offset="0" type="static">
    <phase duration="30" state="GGgrrrGGgrrr"/>
    <phase duration="3" state="yyyrrryyyrrr"/>
    <phase duration="30" state="rrrGrGrrrGrG"/>
    <phase duration="3" state="rrrGryrrrGry"/>
    <phase duration="30" state="rrrGGrrrrGGr"/>
    <phase duration="3" state="rrryyrrrryyr"/>
  </tlLogic>
  <tlLogic id="t_3_2" programID="0" offset="0" type="static">
    <phase duration="30" state="GGgrrrGGgrrr"/>
    <phase duration="3" state="yyyrrryyyrrr"/>
    <phase duration="30" state="rrrGrGrrrGrG"/>
    <phase duration="3" state="rrrGryrrrGry"/>
    <phase duration="30" state="rrrGGrrrrGGr"/>
    <phase duration="3" state="rrryyrrrryyr"/>
  </tlLogic>
  <tlLogic id="t_3_3" programID="0" offset="0" type="static">
    <phase duration="30" state="GGgrrrGGgrrr"/>
    <phase duration="3" state="yyyrrryyyrrr"/>
    <phase duration="30" state="rrrGrGrrrGrG"/>
    <phase duration="3" state="rrrGryrrrGry"/>
    <phase duration="30" state="rrrGGrrrrGGr"/>
    <phase duration="3" state="rrryyrrrryyr"/>
  </tlLogic>
</additional>
