<?xml version="1.0" encoding="UTF-8"?>

<!-- generated on 2023-03-04 18:19:37 by Eclipse SUMO netedit Version 1.14.1
<configuration xmlns:xsi="http://www.w3.org/2001/XMLSchema-instance" xsi:noNamespaceSchemaLocation="http://sumo.dlr.de/xsd/netconvertConfiguration.xsd">

    <input>
        <sumo-net-file value="C:\MyComputer\code\PycharmProjects\hangzhou\ma2c+新流量\net\hangzhou\exp.net.xml"/>
    </input>

    <output>
        <output-file value="C:\MyComputer\code\PycharmProjects\hangzhou\ma2c+新流量\net\hangzhou\exp.net.xml"/>
        <output.street-names value="true"/>
    </output>

    <processing>
        <geometry.min-radius.fix.railways value="false"/>
        <geometry.max-grade.fix value="false"/>
        <offset.disable-normalization value="true"/>
        <lefthand value="false"/>
    </processing>

    <junctions>
        <no-turnarounds value="true"/>
        <junctions.corner-detail value="5"/>
        <junctions.limit-turn-speed value="5.5"/>
        <rectangular-lane-cut value="false"/>
    </junctions>

    <pedestrian>
        <walkingareas value="false"/>
    </pedestrian>

</configuration>
-->

<net version="1.9" junctionCornerDetail="5" limitTurnSpeed="5.50" xmlns:xsi="http://www.w3.org/2001/XMLSchema-instance" xsi:noNamespaceSchemaLocation="http://sumo.dlr.de/xsd/net_file.xsd">

    <location netOffset="-230047.63,-3343677.77" convBoundary="605.36,225.11,3284.73,2722.82" origBoundary="120.077884,30.153264,120.442752,30.313236" projParameter="+proj=utm +zone=51 +ellps=WGS84 +datum=WGS84 +units=m +no_defs"/>

    <type id="highway.bridleway" priority="1" numLanes="1" speed="2.78" allow="pedestrian" oneway="1" width="2.00"/>
    <type id="highway.bus_guideway" priority="1" numLanes="1" speed="27.78" allow="bus" oneway="1"/>
    <type id="highway.cycleway" priority="1" numLanes="1" speed="8.33" allow="bicycle" oneway="0" width="1.00"/>
    <type id="highway.footway" priority="1" numLanes="1" speed="2.78" allow="pedestrian" oneway="1" width="2.00"/>
    <type id="highway.ford" priority="1" numLanes="1" speed="2.78" allow="army" oneway="0"/>
    <type id="highway.living_street" priority="2" numLanes="1" speed="2.78" disallow="tram rail_urban rail rail_electric rail_fast ship" oneway="0"/>
    <type id="highway.motorway" priority="14" numLanes="2" speed="39.44" allow="private emergency authority army vip passenger hov taxi bus coach delivery truck trailer motorcycle evehicle custom1 custom2" oneway="1"/>
    <type id="highway.motorway_link" priority="9" numLanes="1" speed="22.22" allow="private emergency authority army vip passenger hov taxi bus coach delivery truck trailer motorcycle evehicle custom1 custom2" oneway="1"/>
    <type id="highway.path" priority="1" numLanes="1" speed="2.78" allow="pedestrian bicycle" oneway="0" width="2.00"/>
    <type id="highway.pedestrian" priority="1" numLanes="1" speed="2.78" allow="pedestrian" oneway="1" width="2.00"/>
    <type id="highway.primary" priority="12" numLanes="2" speed="27.78" disallow="tram rail_urban rail rail_electric rail_fast ship" oneway="0"/>
    <type id="highway.primary_link" priority="7" numLanes="1" speed="22.22" disallow="tram rail_urban rail rail_electric rail_fast ship" oneway="0"/>
    <type id="highway.raceway" priority="15" numLanes="2" speed="83.33" allow="vip" oneway="0"/>
    <type id="highway.residential" priority="3" numLanes="1" speed="13.89" disallow="tram rail_urban rail rail_electric rail_fast ship" oneway="0"/>
    <type id="highway.secondary" priority="11" numLanes="1" speed="27.78" disallow="tram rail_urban rail rail_electric rail_fast ship" oneway="0"/>
    <type id="highway.secondary_link" priority="6" numLanes="1" speed="22.22" disallow="tram rail_urban rail rail_electric rail_fast ship" oneway="0"/>
    <type id="highway.service" priority="1" numLanes="1" speed="5.56" allow="pedestrian delivery bicycle" oneway="0"/>
    <type id="highway.stairs" priority="1" numLanes="1" speed="1.39" allow="pedestrian" oneway="1" width="2.00"/>
    <type id="highway.step" priority="1" numLanes="1" speed="1.39" allow="pedestrian" oneway="1" width="2.00"/>
    <type id="highway.steps" priority="1" numLanes="1" speed="1.39" allow="pedestrian" oneway="1" width="2.00"/>
    <type id="highway.tertiary" priority="10" numLanes="1" speed="22.22" disallow="tram rail_urban rail rail_electric rail_fast ship" oneway="0"/>
    <type id="highway.tertiary_link" priority="5" numLanes="1" speed="22.22" disallow="tram rail_urban rail rail_electric rail_fast ship" oneway="0"/>
    <type id="highway.track" priority="1" numLanes="1" speed="5.56" allow="pedestrian motorcycle moped bicycle" oneway="0"/>
    <type id="highway.trunk" priority="13" numLanes="2" speed="27.78" disallow="pedestrian bicycle tram rail_urban rail rail_electric rail_fast ship" oneway="0"/>
    <type id="highway.trunk_link" priority="8" numLanes="1" speed="22.22" disallow="pedestrian bicycle tram rail_urban rail rail_electric rail_fast ship" oneway="0"/>
    <type id="highway.unclassified" priority="4" numLanes="1" speed="13.89" disallow="tram rail_urban rail rail_electric rail_fast ship" oneway="0"/>
    <type id="highway.unsurfaced" priority="1" numLanes="1" speed="8.33" disallow="tram rail_urban rail rail_electric rail_fast ship" oneway="0"/>
    <type id="railway.highspeed" priority="21" numLanes="1" speed="69.44" allow="rail_fast" oneway="1"/>
    <type id="railway.light_rail" priority="19" numLanes="1" speed="27.78" allow="rail_urban" oneway="1"/>
    <type id="railway.preserved" priority="16" numLanes="1" speed="27.78" allow="rail" oneway="1"/>
    <type id="railway.rail" priority="20" numLanes="1" speed="44.44" allow="rail" oneway="1"/>
    <type id="railway.subway" priority="18" numLanes="1" speed="27.78" allow="rail_urban" oneway="1"/>
    <type id="railway.tram" priority="17" numLanes="1" speed="13.89" allow="tram" oneway="1"/>

    <edge id=":p_1_0" function="internal">
        <lane id=":p_1_0_0" index="0" disallow="tram rail_urban rail rail_electric rail_fast ship" speed="3.65" length="4.67" shape="1985.76,501.38 1986.59,500.21 1987.41,499.83 1988.19,500.25 1988.96,501.48"/>
    </edge>
    <edge id=":p_13_0" function="internal">
        <lane id=":p_13_0_0" index="0" disallow="tram rail_urban rail rail_electric rail_fast ship" speed="3.65" length="4.67" shape="1401.00,1279.73 1400.16,1278.56 1400.06,1277.67 1400.71,1277.06 1402.12,1276.73"/>
    </edge>
    <edge id=":p_14_0" function="internal">
        <lane id=":p_14_0_0" index="0" disallow="tram rail_urban rail rail_electric rail_fast ship" speed="3.65" length="4.67" shape="1430.61,992.26 1429.49,991.35 1429.17,990.52 1429.64,989.76 1430.91,989.08"/>
    </edge>
    <edge id=":p_3_0" function="internal">
        <lane id=":p_3_0_0" index="0" disallow="tram rail_urban rail rail_electric rail_fast ship" speed="3.65" length="4.67" shape="2484.75,541.32 2485.55,540.12 2486.35,539.72 2487.15,540.12 2487.95,541.32"/>
    </edge>
    <edge id=":p_5_0" function="internal">
        <lane id=":p_5_0_0" index="0" disallow="tram rail_urban rail rail_electric rail_fast ship" speed="8.50" length="17.92" shape="3012.50,834.03 3016.76,837.17 3018.86,840.65 3018.80,844.48 3016.58,848.66"/>
    </edge>
    <edge id=":p_6_0" function="internal">
        <lane id=":p_6_0_0" index="0" disallow="tram rail_urban rail rail_electric rail_fast ship" speed="3.65" length="4.67" shape="3061.09,1119.90 3062.28,1120.72 3062.67,1121.52 3062.26,1122.32 3061.05,1123.10"/>
    </edge>
    <edge id=":p_7_0" function="internal">
        <lane id=":p_7_0_0" index="0" disallow="tram rail_urban rail rail_electric rail_fast ship" speed="18.31" length="1.45" shape="3067.44,1475.21 3067.44,1475.93 3067.41,1476.42 3067.31,1476.91 3067.11,1477.60"/>
        <lane id=":p_7_0_1" index="1" disallow="tram rail_urban rail rail_electric rail_fast ship" speed="14.25" length="1.45" shape="3064.24,1475.26 3064.24,1475.69 3064.22,1475.99 3064.16,1476.28 3064.04,1476.69"/>
        <lane id=":p_7_0_2" index="2" disallow="tram rail_urban rail rail_electric rail_fast ship" speed="22.22" length="1.45" shape="3061.04,1475.31 3061.04,1475.45 3061.03,1475.55 3061.01,1475.65 3060.97,1475.79"/>
    </edge>
    <edge id=":p_8_0" function="internal">
        <lane id=":p_8_0_0" index="0" disallow="tram rail_urban rail rail_electric rail_fast ship" speed="3.65" length="4.67" shape="2864.68,1847.64 2865.52,1848.81 2865.60,1849.70 2864.94,1850.31 2863.54,1850.62"/>
    </edge>
    <edge id=":p_9_0" function="internal">
        <lane id=":p_9_0_0" index="0" disallow="tram rail_urban rail rail_electric rail_fast ship" speed="5.53" length="13.50" shape="2706.35,2084.56 2708.12,2088.33 2707.91,2090.90 2705.72,2092.28 2701.56,2092.46"/>
    </edge>
    <edge id=":t_0_0" function="internal">
        <lane id=":t_0_0_0" index="0" disallow="tram rail_urban rail rail_electric rail_fast ship" speed="6.33" length="8.97" shape="1666.36,783.94 1663.90,783.96 1662.09,784.79 1660.93,786.43 1660.42,788.88"/>
    </edge>
    <edge id=":t_0_1" function="internal">
        <lane id=":t_0_1_0" index="0" disallow="tram rail_urban rail rail_electric rail_fast ship" speed="27.78" length="31.64" shape="1666.36,783.94 1634.98,780.00"/>
        <lane id=":t_0_1_1" index="1" disallow="tram rail_urban rail rail_electric rail_fast ship" speed="27.78" length="31.64" shape="1666.63,780.75 1635.23,776.81"/>
    </edge>
    <edge id=":t_0_3" function="internal">
        <lane id=":t_0_3_0" index="0" disallow="tram rail_urban rail rail_electric rail_fast ship" speed="11.80" length="30.02" shape="1666.89,777.56 1658.57,775.32 1652.76,771.30 1649.46,765.49 1648.66,757.88"/>
    </edge>
    <edge id=":t_0_4" function="internal">
        <lane id=":t_0_4_0" index="0" disallow="tram rail_urban rail rail_electric rail_fast ship" speed="6.83" length="9.86" shape="1661.72,758.62 1661.99,761.08 1663.12,762.92 1665.11,764.13 1667.96,764.71"/>
    </edge>
    <edge id=":t_0_5" function="internal">
        <lane id=":t_0_5_0" index="0" disallow="tram rail_urban rail rail_electric rail_fast ship" speed="27.78" length="30.27" shape="1661.72,758.62 1660.42,788.88"/>
        <lane id=":t_0_5_1" index="1" disallow="tram rail_urban rail rail_electric rail_fast ship" speed="27.78" length="30.27" shape="1658.53,758.44 1657.23,788.67"/>
    </edge>
    <edge id=":t_0_7" function="internal">
        <lane id=":t_0_7_0" index="0" disallow="tram rail_urban rail rail_electric rail_fast ship" speed="11.10" length="28.74" shape="1655.33,758.26 1653.73,765.54 1649.89,770.53 1643.81,773.22 1635.48,773.62"/>
    </edge>
    <edge id=":t_0_8" function="internal">
        <lane id=":t_0_8_0" index="0" disallow="tram rail_urban rail rail_electric rail_fast ship" speed="6.50" length="9.14" shape="1636.33,762.85 1638.81,762.67 1640.63,761.73 1641.78,760.01 1642.27,757.52"/>
    </edge>
    <edge id=":t_0_9" function="internal">
        <lane id=":t_0_9_0" index="0" disallow="tram rail_urban rail rail_electric rail_fast ship" speed="27.78" length="31.67" shape="1636.33,762.85 1667.96,764.71"/>
        <lane id=":t_0_9_1" index="1" disallow="tram rail_urban rail rail_electric rail_fast ship" speed="27.78" length="31.67" shape="1636.08,766.04 1667.70,767.90"/>
    </edge>
    <edge id=":t_0_11" function="internal">
        <lane id=":t_0_11_0" index="0" disallow="tram rail_urban rail rail_electric rail_fast ship" speed="11.49" length="30.12" shape="1635.83,769.23 1644.22,770.97 1650.05,774.76 1653.32,780.59 1654.03,788.47"/>
    </edge>
    <edge id=":t_0_12" function="internal">
        <lane id=":t_0_12_0" index="0" disallow="tram rail_urban rail rail_electric rail_fast ship" speed="7.02" length="10.61" shape="1640.42,787.60 1640.26,784.45 1639.30,782.14 1637.54,780.65 1634.98,780.00"/>
    </edge>
    <edge id=":t_0_13" function="internal">
        <lane id=":t_0_13_0" index="0" disallow="tram rail_urban rail rail_electric rail_fast ship" speed="27.78" length="30.15" shape="1640.42,787.60 1642.27,757.52"/>
        <lane id=":t_0_13_1" index="1" disallow="tram rail_urban rail rail_electric rail_fast ship" speed="27.78" length="30.15" shape="1643.61,787.80 1645.46,757.70"/>
    </edge>
    <edge id=":t_0_15" function="internal">
        <lane id=":t_0_15_0" index="0" disallow="tram rail_urban rail rail_electric rail_fast ship" speed="11.46" length="30.51" shape="1646.80,788.01 1648.57,780.01 1652.60,774.52 1658.89,771.55 1667.43,771.09"/>
    </edge>
    <edge id=":t_1_0" function="internal">
        <lane id=":t_1_0_0" index="0" disallow="tram rail_urban rail rail_electric rail_fast ship" speed="6.34" length="9.07" shape="1991.07,820.90 1988.54,820.99 1986.73,821.87 1985.61,823.55 1985.20,826.03"/>
    </edge>
    <edge id=":t_1_1" function="internal">
        <lane id=":t_1_1_0" index="0" disallow="tram rail_urban rail rail_electric rail_fast ship" speed="27.78" length="28.59" shape="1991.07,820.90 1962.68,817.84"/>
        <lane id=":t_1_1_1" index="1" disallow="tram rail_urban rail rail_electric rail_fast ship" speed="27.78" length="28.59" shape="1991.48,817.73 1963.02,814.66"/>
    </edge>
    <edge id=":t_1_3" function="internal">
        <lane id=":t_1_3_0" index="0" disallow="tram rail_urban rail rail_electric rail_fast ship" speed="12.25" length="32.60" shape="1991.90,814.55 1985.35,812.34 1980.78,807.32 1978.17,799.49 1977.53,788.86"/>
    </edge>
    <edge id=":t_1_4" function="internal">
        <lane id=":t_1_4_0" index="0" disallow="tram rail_urban rail rail_electric rail_fast ship" speed="7.68" length="11.99" shape="1987.13,789.14 1987.49,792.34 1988.78,794.76 1991.01,796.40 1994.16,797.26"/>
    </edge>
    <edge id=":t_1_5" function="internal">
        <lane id=":t_1_5_0" index="0" disallow="tram rail_urban rail rail_electric rail_fast ship" speed="22.22" length="36.95" shape="1987.13,789.14 1985.20,826.03"/>
        <lane id=":t_1_5_1" index="1" disallow="tram rail_urban rail rail_electric rail_fast ship" speed="22.22" length="36.95" shape="1983.93,789.05 1982.00,825.96"/>
    </edge>
    <edge id=":t_1_7" function="internal">
        <lane id=":t_1_7_0" index="0" disallow="tram rail_urban rail rail_electric rail_fast ship" speed="11.57" length="32.66" shape="1980.73,788.95 1979.39,799.48 1976.04,806.75 1970.70,810.74 1963.36,811.47"/>
    </edge>
    <edge id=":t_1_8" function="internal">
        <lane id=":t_1_8_0" index="0" disallow="tram rail_urban rail rail_electric rail_fast ship" speed="6.34" length="9.04" shape="1965.28,793.79 1967.78,793.70 1969.59,792.82 1970.71,791.15 1971.14,788.68"/>
    </edge>
    <edge id=":t_1_9" function="internal">
        <lane id=":t_1_9_0" index="0" disallow="tram rail_urban rail rail_electric rail_fast ship" speed="27.78" length="29.05" shape="1965.28,793.79 1994.16,797.26"/>
        <lane id=":t_1_9_1" index="1" disallow="tram rail_urban rail rail_electric rail_fast ship" speed="27.78" length="29.05" shape="1964.93,796.97 1993.74,800.43"/>
    </edge>
    <edge id=":t_1_11" function="internal">
        <lane id=":t_1_11_0" index="0" disallow="tram rail_urban rail rail_electric rail_fast ship" speed="12.28" length="32.47" shape="1964.59,800.15 1970.99,802.36 1975.50,807.39 1978.10,815.23 1978.80,825.89"/>
    </edge>
    <edge id=":t_1_12" function="internal">
        <lane id=":t_1_12_0" index="0" disallow="tram rail_urban rail rail_electric rail_fast ship" speed="7.48" length="11.44" shape="1969.20,825.70 1968.85,822.53 1967.64,820.16 1965.59,818.60 1962.68,817.84"/>
    </edge>
    <edge id=":t_1_13" function="internal">
        <lane id=":t_1_13_0" index="0" disallow="tram rail_urban rail rail_electric rail_fast ship" speed="22.22" length="37.05" shape="1969.20,825.70 1971.14,788.68"/>
        <lane id=":t_1_13_1" index="1" disallow="tram rail_urban rail rail_electric rail_fast ship" speed="22.22" length="37.05" shape="1972.40,825.76 1974.34,788.77"/>
    </edge>
    <edge id=":t_1_15" function="internal">
        <lane id=":t_1_15_0" index="0" disallow="tram rail_urban rail rail_electric rail_fast ship" speed="11.63" length="33.74" shape="1975.60,825.83 1976.49,815.43 1979.20,808.09 1984.55,804.07 1993.33,803.61"/>
    </edge>
    <edge id=":t_10_0" function="internal">
        <lane id=":t_10_0_0" index="0" disallow="tram rail_urban rail rail_electric rail_fast ship" speed="6.88" length="10.17" shape="1627.57,1373.22 1624.50,1373.36 1622.25,1374.26 1620.81,1375.92 1620.20,1378.33"/>
    </edge>
    <edge id=":t_10_1" function="internal">
        <lane id=":t_10_1_0" index="0" disallow="tram rail_urban rail rail_electric rail_fast ship" speed="22.11" length="41.41" shape="1627.57,1373.22 1617.46,1371.01 1608.77,1366.75 1600.24,1361.70 1590.65,1357.12"/>
        <lane id=":t_10_1_1" index="1" disallow="tram rail_urban rail rail_electric rail_fast ship" speed="22.11" length="41.41" shape="1630.55,1370.22 1620.15,1368.01 1610.81,1363.75 1601.65,1358.70 1591.76,1354.12"/>
    </edge>
    <edge id=":t_10_3" function="internal">
        <lane id=":t_10_3_0" index="0" disallow="tram rail_urban rail rail_electric rail_fast ship" speed="13.63" length="43.16" shape="1633.52,1367.21 1622.01,1364.74 1614.05,1359.15 1609.64,1350.43 1608.79,1338.57"/>
    </edge>
    <edge id=":t_10_4" function="internal">
        <lane id=":t_10_4_0" index="0" disallow="tram rail_urban rail rail_electric rail_fast ship" speed="7.58" length="12.37" shape="1624.13,1339.63 1624.20,1343.80 1625.04,1346.85 1626.65,1348.79 1629.03,1349.60"/>
    </edge>
    <edge id=":t_10_5" function="internal">
        <lane id=":t_10_5_0" index="0" disallow="tram rail_urban rail rail_electric rail_fast ship" speed="27.78" length="38.89" shape="1624.13,1339.63 1620.20,1378.33"/>
        <lane id=":t_10_5_1" index="1" disallow="tram rail_urban rail rail_electric rail_fast ship" speed="27.78" length="38.89" shape="1620.94,1339.41 1617.01,1378.10"/>
    </edge>
    <edge id=":t_10_7" function="internal">
        <lane id=":t_10_7_0" index="0" disallow="tram rail_urban rail rail_electric rail_fast ship" speed="11.03" length="34.06" shape="1617.74,1339.19 1615.44,1348.25 1610.31,1352.89 1602.68,1353.66 1592.88,1351.12"/>
    </edge>
    <edge id=":t_10_8" function="internal">
        <lane id=":t_10_8_0" index="0" disallow="tram rail_urban rail rail_electric rail_fast ship" speed="5.97" length="9.08" shape="1596.23,1342.12 1598.77,1342.68 1600.65,1342.20 1601.86,1340.68 1602.40,1338.14"/>
    </edge>
    <edge id=":t_10_9" function="internal">
        <lane id=":t_10_9_0" index="0" disallow="tram rail_urban rail rail_electric rail_fast ship" speed="22.22" length="34.21" shape="1596.23,1342.12 1605.18,1345.30 1612.30,1347.31 1619.58,1348.59 1629.03,1349.60"/>
        <lane id=":t_10_9_1" index="1" disallow="tram rail_urban rail rail_electric rail_fast ship" speed="22.22" length="34.21" shape="1595.11,1345.12 1604.20,1348.33 1611.59,1350.40 1619.16,1351.74 1628.73,1352.79"/>
    </edge>
    <edge id=":t_10_11" function="internal">
        <lane id=":t_10_11_0" index="0" disallow="tram rail_urban rail rail_electric rail_fast ship" speed="14.56" length="38.69" shape="1594.00,1348.12 1603.26,1352.96 1609.65,1359.54 1613.17,1367.84 1613.82,1377.86"/>
    </edge>
    <edge id=":t_10_12" function="internal">
        <lane id=":t_10_12_0" index="0" disallow="tram rail_urban rail rail_electric rail_fast ship" speed="11.37" length="23.32" shape="1599.61,1376.83 1599.50,1369.62 1597.96,1363.93 1595.01,1359.77 1590.65,1357.12"/>
    </edge>
    <edge id=":t_10_13" function="internal">
        <lane id=":t_10_13_0" index="0" disallow="tram rail_urban rail rail_electric rail_fast ship" speed="27.78" length="38.81" shape="1599.61,1376.83 1602.40,1338.14"/>
        <lane id=":t_10_13_1" index="1" disallow="tram rail_urban rail rail_electric rail_fast ship" speed="27.78" length="38.81" shape="1602.80,1377.07 1605.60,1338.35"/>
    </edge>
    <edge id=":t_10_15" function="internal">
        <lane id=":t_10_15_0" index="0" disallow="tram rail_urban rail rail_electric rail_fast ship" speed="12.30" length="35.41" shape="1605.99,1377.30 1608.05,1367.25 1612.47,1360.35 1619.27,1356.59 1628.44,1355.98"/>
    </edge>
    <edge id=":t_11_0" function="internal">
        <lane id=":t_11_0_0" index="0" speed="7.31" length="10.96" shape="1964.89,1397.06 1962.42,1397.20 1960.41,1398.39 1958.87,1400.62 1957.80,1403.89"/>
    </edge>
    <edge id=":t_11_1" function="internal">
        <lane id=":t_11_1_0" index="0" speed="22.00" length="27.55" shape="1964.89,1397.06 1937.59,1394.32"/>
        <lane id=":t_11_1_1" index="1" speed="22.00" length="27.55" shape="1965.33,1393.89 1937.81,1391.13"/>
    </edge>
    <edge id=":t_11_3" function="internal">
        <lane id=":t_11_3_0" index="0" disallow="tram rail_urban rail rail_electric rail_fast ship" speed="11.48" length="28.50" shape="1965.76,1390.72 1959.63,1388.60 1955.42,1384.22 1953.13,1377.58 1952.77,1368.68"/>
    </edge>
    <edge id=":t_11_4" function="internal">
        <lane id=":t_11_4_0" index="0" disallow="tram rail_urban rail rail_electric rail_fast ship" speed="6.79" length="9.35" shape="1962.36,1369.25 1962.58,1371.70 1963.56,1373.56 1965.32,1374.83 1967.84,1375.52"/>
    </edge>
    <edge id=":t_11_5" function="internal">
        <lane id=":t_11_5_0" index="0" disallow="tram rail_urban rail rail_electric rail_fast ship" speed="22.11" length="34.73" shape="1962.36,1369.25 1961.72,1378.92 1960.95,1386.69 1959.75,1394.40 1957.80,1403.89"/>
        <lane id=":t_11_5_1" index="1" disallow="tram rail_urban rail rail_electric rail_fast ship" speed="22.11" length="34.73" shape="1959.16,1369.06 1958.53,1378.65 1957.79,1386.25 1956.61,1393.79 1954.67,1403.20"/>
    </edge>
    <edge id=":t_11_7" function="internal">
        <lane id=":t_11_7_0" index="0" disallow="tram rail_urban rail rail_electric rail_fast ship" speed="11.36" length="29.83" shape="1955.97,1368.87 1954.39,1377.64 1950.87,1383.74 1945.42,1387.17 1938.03,1387.94"/>
    </edge>
    <edge id=":t_11_8" function="internal">
        <lane id=":t_11_8_0" index="0" disallow="tram rail_urban rail rail_electric rail_fast ship" speed="6.89" length="10.32" shape="1939.01,1373.54 1942.10,1373.40 1944.37,1372.48 1945.79,1370.77 1946.39,1368.29"/>
    </edge>
    <edge id=":t_11_9" function="internal">
        <lane id=":t_11_9_0" index="0" disallow="tram rail_urban rail rail_electric rail_fast ship" speed="22.22" length="28.80" shape="1939.01,1373.54 1967.84,1375.52"/>
        <lane id=":t_11_9_1" index="1" disallow="tram rail_urban rail rail_electric rail_fast ship" speed="22.22" length="28.80" shape="1938.79,1376.73 1967.41,1378.70"/>
    </edge>
    <edge id=":t_11_11" function="internal">
        <lane id=":t_11_11_0" index="0" disallow="tram rail_urban rail rail_electric rail_fast ship" speed="11.11" length="31.50" shape="1938.57,1379.93 1947.13,1381.90 1951.64,1386.30 1952.87,1393.16 1951.55,1402.51"/>
    </edge>
    <edge id=":t_11_12" function="internal">
        <lane id=":t_11_12_0" index="0" speed="6.21" length="9.05" shape="1942.17,1400.44 1942.36,1397.91 1941.66,1396.05 1940.07,1394.85 1937.59,1394.32"/>
    </edge>
    <edge id=":t_11_13" function="internal">
        <lane id=":t_11_13_0" index="0" disallow="tram rail_urban rail rail_electric rail_fast ship" speed="22.11" length="32.73" shape="1942.17,1400.44 1944.07,1391.34 1945.15,1384.49 1945.80,1377.57 1946.39,1368.29"/>
        <lane id=":t_11_13_1" index="1" disallow="tram rail_urban rail rail_electric rail_fast ship" speed="22.11" length="32.73" shape="1945.30,1401.13 1947.20,1391.96 1948.31,1384.93 1948.98,1377.84 1949.58,1368.48"/>
    </edge>
    <edge id=":t_11_15" function="internal">
        <lane id=":t_11_15_0" index="0" disallow="tram rail_urban rail rail_electric rail_fast ship" speed="12.30" length="32.82" shape="1948.42,1401.82 1951.68,1391.01 1955.92,1383.55 1961.17,1379.45 1967.41,1378.70"/>
    </edge>
    <edge id=":t_12_0" function="internal">
        <lane id=":t_12_0_0" index="0" disallow="tram rail_urban rail rail_electric rail_fast ship" speed="6.90" length="10.31" shape="2215.24,1431.01 2212.10,1431.03 2209.77,1431.85 2208.26,1433.45 2207.56,1435.84"/>
    </edge>
    <edge id=":t_12_1" function="internal">
        <lane id=":t_12_1_0" index="0" disallow="tram rail_urban rail rail_electric rail_fast ship" speed="22.11" length="30.13" shape="2215.24,1431.01 2185.98,1427.69"/>
        <lane id=":t_12_1_1" index="1" disallow="tram rail_urban rail rail_electric rail_fast ship" speed="22.11" length="30.13" shape="2215.55,1427.82 2184.93,1424.31"/>
    </edge>
    <edge id=":t_12_3" function="internal">
        <lane id=":t_12_3_0" index="0" disallow="tram rail_urban rail rail_electric rail_fast ship" speed="11.37" length="29.75" shape="2215.86,1424.64 2209.33,1422.62 2204.98,1418.14 2202.82,1411.20 2202.83,1401.80"/>
    </edge>
    <edge id=":t_12_4" function="internal">
        <lane id=":t_12_4_0" index="0" disallow="tram rail_urban rail rail_electric rail_fast ship" speed="6.56" length="9.23" shape="2212.38,1402.79 2212.46,1405.37 2213.32,1407.30 2214.95,1408.56 2217.36,1409.16"/>
    </edge>
    <edge id=":t_12_5" function="internal">
        <lane id=":t_12_5_0" index="0" disallow="tram rail_urban rail rail_electric rail_fast ship" speed="27.78" length="33.41" shape="2212.38,1402.79 2207.56,1435.84"/>
        <lane id=":t_12_5_1" index="1" disallow="tram rail_urban rail rail_electric rail_fast ship" speed="27.78" length="33.41" shape="2209.20,1402.46 2204.38,1435.52"/>
    </edge>
    <edge id=":t_12_7" function="internal">
        <lane id=":t_12_7_0" index="0" disallow="tram rail_urban rail rail_electric rail_fast ship" speed="11.88" length="33.37" shape="2206.01,1402.13 2203.79,1411.39 2199.36,1417.61 2192.72,1420.79 2183.87,1420.93"/>
    </edge>
    <edge id=":t_12_8" function="internal">
        <lane id=":t_12_8_0" index="0" disallow="tram rail_urban rail rail_electric rail_fast ship" speed="6.44" length="9.03" shape="2190.28,1405.99 2192.77,1405.98 2194.63,1405.16 2195.86,1403.55 2196.46,1401.14"/>
    </edge>
    <edge id=":t_12_9" function="internal">
        <lane id=":t_12_9_0" index="0" disallow="tram rail_urban rail rail_electric rail_fast ship" speed="22.22" length="27.33" shape="2190.28,1405.99 2217.36,1409.16"/>
        <lane id=":t_12_9_1" index="1" disallow="tram rail_urban rail rail_electric rail_fast ship" speed="22.22" length="27.33" shape="2189.85,1409.16 2217.05,1412.34"/>
    </edge>
    <edge id=":t_12_11" function="internal">
        <lane id=":t_12_11_0" index="0" disallow="tram rail_urban rail rail_electric rail_fast ship" speed="11.34" length="28.80" shape="2189.41,1412.33 2195.37,1414.48 2199.32,1419.00 2201.26,1425.91 2201.19,1435.19"/>
    </edge>
    <edge id=":t_12_12" function="internal">
        <lane id=":t_12_12_0" index="0" disallow="tram rail_urban rail rail_electric rail_fast ship" speed="6.83" length="9.77" shape="2191.64,1434.22 2191.51,1431.68 2190.52,1429.75 2188.68,1428.42 2185.98,1427.69"/>
    </edge>
    <edge id=":t_12_13" function="internal">
        <lane id=":t_12_13_0" index="0" disallow="tram rail_urban rail rail_electric rail_fast ship" speed="27.78" length="33.43" shape="2191.64,1434.22 2196.46,1401.14"/>
        <lane id=":t_12_13_1" index="1" disallow="tram rail_urban rail rail_electric rail_fast ship" speed="27.78" length="33.43" shape="2194.83,1434.54 2199.65,1401.47"/>
    </edge>
    <edge id=":t_12_15" function="internal">
        <lane id=":t_12_15_0" index="0" disallow="tram rail_urban rail rail_electric rail_fast ship" speed="11.54" length="30.54" shape="2198.01,1434.87 2199.99,1425.80 2203.76,1419.56 2209.35,1416.14 2216.74,1415.53"/>
    </edge>
    <edge id=":t_13_0" function="internal">
        <lane id=":t_13_0_0" index="0" disallow="tram rail_urban rail rail_electric rail_fast ship" speed="7.27" length="10.66" shape="2503.93,1461.03 2501.47,1461.22 2499.49,1462.40 2498.01,1464.55 2497.01,1467.67"/>
    </edge>
    <edge id=":t_13_1" function="internal">
        <lane id=":t_13_1_0" index="0" disallow="tram rail_urban rail rail_electric rail_fast ship" speed="22.22" length="28.53" shape="2503.93,1461.03 2475.56,1458.05"/>
        <lane id=":t_13_1_1" index="1" disallow="tram rail_urban rail rail_electric rail_fast ship" speed="22.22" length="28.53" shape="2504.27,1457.84 2475.89,1454.86"/>
    </edge>
    <edge id=":t_13_3" function="internal">
        <lane id=":t_13_3_0" index="0" disallow="tram rail_urban rail rail_electric rail_fast ship" speed="12.35" length="32.23" shape="2504.61,1454.66 2498.34,1452.50 2493.84,1447.52 2491.10,1439.74 2490.13,1429.15"/>
    </edge>
    <edge id=":t_13_4" function="internal">
        <lane id=":t_13_4_0" index="0" disallow="tram rail_urban rail rail_electric rail_fast ship" speed="7.67" length="11.83" shape="2499.73,1429.08 2500.17,1432.41 2501.44,1434.89 2503.54,1436.52 2506.47,1437.30"/>
    </edge>
    <edge id=":t_13_5" function="internal">
        <lane id=":t_13_5_0" index="0" disallow="tram rail_urban rail rail_electric rail_fast ship" speed="22.22" length="38.44" shape="2499.73,1429.08 2499.78,1439.37 2499.55,1448.49 2498.74,1457.55 2497.01,1467.67"/>
        <lane id=":t_13_5_1" index="1" disallow="tram rail_urban rail rail_electric rail_fast ship" speed="22.22" length="38.44" shape="2496.53,1429.10 2496.59,1439.29 2496.39,1448.18 2495.59,1457.01 2493.88,1467.02"/>
    </edge>
    <edge id=":t_13_7" function="internal">
        <lane id=":t_13_7_0" index="0" disallow="tram rail_urban rail rail_electric rail_fast ship" speed="11.61" length="33.64" shape="2493.33,1429.12 2492.73,1439.49 2490.22,1446.86 2484.99,1451.00 2476.22,1451.68"/>
    </edge>
    <edge id=":t_13_8" function="internal">
        <lane id=":t_13_8_0" index="0" disallow="tram rail_urban rail rail_electric rail_fast ship" speed="6.30" length="9.05" shape="2478.01,1434.41 2480.53,1434.29 2482.32,1433.38 2483.39,1431.68 2483.73,1429.19"/>
    </edge>
    <edge id=":t_13_9" function="internal">