<additional>
  <tlLogic id="t_0" programID="1" offset="0" type="static">
    <phase duration="5" state="GGGrrrrrGGGrrrrr"/>
    <phase duration="2" state="yyyrrrrryyyrrrrr"/>
    <phase duration="5" state="rrrGrrrrrrrGrrrr"/>
    <phase duration="2" state="rrryrrrrrrryrrrr"/>
    <phase duration="5" state="rrrrGGGrrrrrGGGr"/>
    <phase duration="2" state="rrrryyyrrrrryyyr"/>
    <phase duration="5" state="rrrrrrrGrrrrrrrG"/>
    <phase duration="2" state="rrrrrrryrrrrrrry"/>
  </tlLogic>
  <tlLogic id="t_1" programID="1" offset="0" type="static">
    <phase duration="5" state="GGGrrrrrGGGrrrrr"/>
    <phase duration="2" state="yyyrrrrryyyrrrrr"/>
    <phase duration="5" state="rrrGrrrrrrrGrrrr"/>
    <phase duration="2" state="rrryrrrrrrryrrrr"/>
    <phase duration="5" state="rrrrGGGrrrrrGGGr"/>
    <phase duration="2" state="rrrryyyrrrrryyyr"/>
    <phase duration="5" state="rrrrrrrGrrrrrrrG"/>
    <phase duration="2" state="rrrrrrryrrrrrrry"/>
  </tlLogic>
  <tlLogic id="t_2" programID="1" offset="0" type="static">
    <phase duration="5" state="GGGrrrrrGGGrrrrr"/>
    <phase duration="2" state="yyyrrrrryyyrrrrr"/>
    <phase duration="5" state="rrrGrrrrrrrGrrrr"/>
    <phase duration="2" state="rrryrrrrrrryrrrr"/>
    <phase duration="5" state="rrrrGGGrrrrrGGGr"/>
    <phase duration="2" state="rrrryyyrrrrryyyr"/>
    <phase duration="5" state="rrrrrrrGrrrrrrrG"/>
    <phase duration="2" state="rrrrrrryrrrrrrry"/>
  </tlLogic>
  <tlLogic id="t_3" programID="1" offset="0" type="static">
    <phase duration="5" state="GGGrrrrrGGGrrrrr"/>
    <phase duration="2" state="yyyrrrrryyyrrrrr"/>
    <phase duration="5" state="rrrGrrrrrrrGrrrr"/>
    <phase duration="2" state="rrryrrrrrrryrrrr"/>
    <phase duration="5" state="rrrrGGGrrrrrGGGr"/>
    <phase duration="2" state="rrrryyyrrrrryyyr"/>
    <phase duration="5" state="rrrrrrrGrrrrrrrG"/>
    <phase duration="2" state="rrrrrrryrrrrrrry"/>
  </tlLogic>
  <tlLogic id="t_4" programID="1" offset="0" type="static">
    <phase duration="5" state="GGGrrrrrGGGrrrrr"/>
    <phase duration="2" state="yyyrrrrryyyrrrrr"/>
    <phase duration="5" state="rrrGrrrrrrrGrrrr"/>
    <phase duration="2" state="rrryrrrrrrryrrrr"/>
    <phase duration="5" state="rrrrGGGrrrrrGGGr"/>
    <phase duration="2" state="rrrryyyrrrrryyyr"/>
    <phase duration="5" state="rrrrrrrGrrrrrrrG"/>
    <phase duration="2" state="rrrrrrryrrrrrrry"/>
  </tlLogic>
  <tlLogic id="t_5" programID="1" offset="0" type="static">
    <phase duration="5" state="GGGrrrrrGGGrrrrr"/>
    <phase duration="2" state="yyyrrrrryyyrrrrr"/>
    <phase duration="5" state="rrrGrrrrrrrGrrrr"/>
    <phase duration="2" state="rrryrrrrrrryrrrr"/>
    <phase duration="5" state="rrrrGGGrrrrrGGGr"/>
    <phase duration="2" state="rrrryyyrrrrryyyr"/>
    <phase duration="5" state="rrrrrrrGrrrrrrrG"/>
    <phase duration="2" state="rrrrrrryrrrrrrry"/>
  </tlLogic>
  <tlLogic id="t_6" programID="1" offset="0" type="static">
    <phase duration="5" state="GGGrrrrrGGGrrrrr"/>
    <phase duration="2" state="yyyrrrrryyyrrrrr"/>
    <phase duration="5" state="rrrGrrrrrrrGrrrr"/>
    <phase duration="2" state="rrryrrrrrrryrrrr"/>
    <phase duration="5" state="rrrrGGGrrrrrGGGr"/>
    <phase duration="2" state="rrrryyyrrrrryyyr"/>
    <phase duration="5" state="rrrrrrrGrrrrrrrG"/>
    <phase duration="2" state="rrrrrrryrrrrrrry"/>
  </tlLogic>
  <tlLogic id="t_7" programID="1" offset="0" type="static">
    <phase duration="5" state="GGGrrrrrGGGrrrrr"/>
    <phase duration="2" state="yyyrrrrryyyrrrrr"/>
    <phase duration="5" state="rrrGrrrrrrrGrrrr"/>
    <phase duration="2" state="rrryrrrrrrryrrrr"/>
    <phase duration="5" state="rrrrGGGrrrrrGGGr"/>
    <phase duration="2" state="rrrryyyrrrrryyyr"/>
    <phase duration="5" state="rrrrrrrGrrrrrrrG"/>
    <phase duration="2" state="rrrrrrryrrrrrrry"/>
  </tlLogic>
  <tlLogic id="t_8" programID="1" offset="0" type="static">
    <phase duration="5" state="GGGrrrrrGGGrrrrr"/>
    <phase duration="2" state="yyyrrrrryyyrrrrr"/>
    <phase duration="5" state="rrrGrrrrrrrGrrrr"/>
    <phase duration="2" state="rrryrrrrrrryrrrr"/>
    <phase duration="5" state="rrrrGGGrrrrrGGGr"/>
    <phase duration="2" state="rrrryyyrrrrryyyr"/>
    <phase duration="5" state="rrrrrrrGrrrrrrrG"/>
    <phase duration="2" state="rrrrrrryrrrrrrry"/>
  </tlLogic>
  <tlLogic id="t_9" programID="1" offset="0" type="static">
    <phase duration="5" state="GGGrrrrrGGGrrrrr"/>
    <phase duration="2" state="yyyrrrrryyyrrrrr"/>
    <phase duration="5" state="rrrGrrrrrrrGrrrr"/>
    <phase duration="2" state="rrryrrrrrrryrrrr"/>
    <phase duration="5" state="rrrrGGGrrrrrGGGr"/>
    <phase duration="2" state="rrrryyyrrrrryyyr"/>
    <phase duration="5" state="rrrrrrrGrrrrrrrG"/>
    <phase duration="2" state="rrrrrrryrrrrrrry"/>
  </tlLogic>
  <tlLogic id="t_10" programID="1" offset="0" type="static">
    <phase duration="5" state="GGGrrrrrGGGrrrrr"/>
    <phase duration="2" state="yyyrrrrryyyrrrrr"/>
    <phase duration="5" state="rrrGrrrrrrrGrrrr"/>
    <phase duration="2" state="rrryrrrrrrryrrrr"/>
    <phase duration="5" state="rrrrGGGrrrrrGGGr"/>
    <phase duration="2" state="rrrryyyrrrrryyyr"/>
    <phase duration="5" state="rrrrrrrGrrrrrrrG"/>
    <phase duration="2" state="rrrrrrryrrrrrrry"/>
  </tlLogic>
  <tlLogic id="t_11" programID="1" offset="0" type="static">
    <phase duration="5" state="GGGrrrrrGGGrrrrr"/>
    <phase duration="2" state="yyyrrrrryyyrrrrr"/>
    <phase duration="5" state="rrrGrrrrrrrGrrrr"/>
    <phase duration="2" state="rrryrrrrrrryrrrr"/>
    <phase duration="5" state="rrrrGGGrrrrrGGGr"/>
    <phase duration="2" state="rrrryyyrrrrryyyr"/>
    <phase duration="5" state="rrrrrrrGrrrrrrrG"/>
    <phase duration="2" state="rrrrrrryrrrrrrry"/>
  </tlLogic>
  <tlLogic id="t_12" programID="1" offset="0" type="static">
    <phase duration="5" state="GGGrrrrrGGGrrrrr"/>
    <phase duration="2" state="yyyrrrrryyyrrrrr"/>
    <phase duration="5" state="rrrGrrrrrrrGrrrr"/>
    <phase duration="2" state="rrryrrrrrrryrrrr"/>
    <phase duration="5" state="rrrrGGGrrrrrGGGr"/>
    <phase duration="2" state="rrrryyyrrrrryyyr"/>
    <phase duration="5" state="rrrrrrrGrrrrrrrG"/>
    <phase duration="2" state="rrrrrrryrrrrrrry"/>
  </tlLogic>
  <tlLogic id="t_13" programID="1" offset="0" type="static">
    <phase duration="5" state="GGGrrrrrGGGrrrrr"/>
    <phase duration="2" state="yyyrrrrryyyrrrrr"/>
    <phase duration="5" state="rrrGrrrrrrrGrrrr"/>
    <phase duration="2" state="rrryrrrrrrryrrrr"/>
    <phase duration="5" state="rrrrGGGrrrrrGGGr"/>
    <phase duration="2" state="rrrryyyrrrrryyyr"/>
    <phase duration="5" state="rrrrrrrGrrrrrrrG"/>
    <phase duration="2" state="rrrrrrryrrrrrrry"/>
  </tlLogic>
  <tlLogic id="t_14" programID="1" offset="0" type="static">
    <phase duration="5" state="GGGrrrrrGGGrrrrr"/>
    <phase duration="2" state="yyyrrrrryyyrrrrr"/>
    <phase duration="5" state="rrrGrrrrrrrGrrrr"/>
    <phase duration="2" state="rrryrrrrrrryrrrr"/>
    <phase duration="5" state="rrrrGGGrrrrrGGGr"/>
    <phase duration="2" state="rrrryyyrrrrryyyr"/>
    <phase duration="5" state="rrrrrrrGrrrrrrrG"/>
    <phase duration="2" state="rrrrrrryrrrrrrry"/>
  </tlLogic>
  <tlLogic id="t_16" programID="1" offset="0" type="static">
    <phase duration="5" state="GGGrrrrrGGGrrrrr"/>
    <phase duration="2" state="yyyrrrrryyyrrrrr"/>
    <phase duration="5" state="rrrGrrrrrrrGrrrr"/>
    <phase duration="2" state="rrryrrrrrrryrrrr"/>
    <phase duration="5" state="rrrrGGGrrrrrGGGr"/>
    <phase duration="2" state="rrrryyyrrrrryyyr"/>
    <phase duration="5" state="rrrrrrrGrrrrrrrG"/>
    <phase duration="2" state="rrrrrrryrrrrrrry"/>
  </tlLogic>
  <tlLogic id="t_17" programID="1" offset="0" type="static">
    <phase duration="5" state="GGGrrrrrGGGrrrrr"/>
    <phase duration="2" state="yyyrrrrryyyrrrrr"/>
    <phase duration="5" state="rrrGrrrrrrrGrrrr"/>
    <phase duration="2" state="rrryrrrrrrryrrrr"/>
    <phase duration="5" state="rrrrGGGrrrrrGGGr"/>
    <phase duration="2" state="rrrryyyrrrrryyyr"/>
    <phase duration="5" state="rrrrrrrGrrrrrrrG"/>
    <phase duration="2" state="rrrrrrryrrrrrrry"/>
  </tlLogic>
  <tlLogic id="t_15" programID="1" offset="0" type="static">
    <phase duration="5" state="rrrGGGGGGrr"/>
    <phase duration="2" state="rrryyyyyyrr"/>
    <phase duration="5" state="rrrrrrrGGGG"/>
    <phase duration="2" state="rrrrrrryyyy"/>
    <phase duration="5" state="GGGGrrrrrrr"/>
    <phase duration="2" state="yyyyrrrrrrr"/>
  </tlLogic>
  <tlLogic id="t_18" programID="1" offset="0" type="static">
    <phase duration="5" state="GGGrrr"/>
    <phase duration="2" state="yyyrrr"/>
    <phase duration="5" state="rrrGGG"/>
    <phase duration="2" state="rrryyy"/>
  </tlLogic>
  <tlLogic id="t_19" programID="1" offset="0" type="static">
    <phase duration="5" state="GGGGrrr"/>
    <phase duration="2" state="yyyyrrr"/>
    <phase duration="5" state="rrrrGGG"/>
    <phase duration="2" state="rrrryyy"/>
  </tlLogic>
  <tlLogic id="t_20" programID="1" offset="0" type="static">
    <phase duration="5" state="rrrrrGGrGGGG"/>
    <phase duration="2" state="rrrrryyryyyy"/>
    <phase duration="5" state="rrrrrGGGrrrr"/>
    <phase duration="2" state="rrrrryyyrrrr"/>
    <phase duration="5" state="GGGGGrrrrrrr"/>
    <phase duration="2" state="yyyyyrrrrrrr"/>
  </tlLogic>
  <tlLogic id="t_21" programID="1" offset="0" type="static">
    <phase duration="5" state="GGGGrrr"/>
    <phase duration="2" state="yyyyrrr"/>
    <phase duration="5" state="rrrrGGG"/>
    <phase duration="2" state="rrrryyy"/>
  </tlLogic>
  <tlLogic id="t_22" programID="1" offset="0" type="static">
    <phase duration="5" state="rrrrGGGrGGGr"/>
    <phase duration="2" state="rrrryyyryyyr"/>
    <phase duration="5" state="rrrrrrrGrrrG"/>
    <phase duration="2" state="rrrrrrryrrry"/>
    <phase duration="5" state="GGGGGrrrrrrr"/>
    <phase duration="2" state="yyyyyrrrrrrr"/>
  </tlLogic>
  <laneAreaDetector file="NUL" freq="1" id="t_0-t_1_0" lane="t_0-t_1_0" pos="-60" endPos="-1"/>
  <laneAreaDetector file="NUL" freq="1" id="t_0-t_1_1" lane="t_0-t_1_1" pos="-60" endPos="-1"/>
  <laneAreaDetector file="NUL" freq="1" id="t_0-t_1_2" lane="t_0-t_1_2" pos="-60" endPos="-1"/>
  <laneAreaDetector file="NUL" freq="1" id="t_0-t_5_0" lane="t_0-t_5_0" pos="-60" endPos="-1"/>
  <laneAreaDetector file="NUL" freq="1" id="t_0-t_5_1" lane="t_0-t_5_1" pos="-60" endPos="-1"/>
  <laneAreaDetector file="NUL" freq="1" id="t_0-t_5_2" lane="t_0-t_5_2" pos="-60" endPos="-1"/>
  <laneAreaDetector file="NUL" freq="1" id="t_1-t_0_0" lane="t_1-t_0_0" pos="-60" endPos="-1"/>
  <laneAreaDetector file="NUL" freq="1" id="t_1-t_0_1" lane="t_1-t_0_1" pos="-60" endPos="-1"/>
  <laneAreaDetector file="NUL" freq="1" id="t_1-t_0_2" lane="t_1-t_0_2" pos="-60" endPos="-1"/>
  <laneAreaDetector file="NUL" freq="1" id="t_1-t_2_0" lane="t_1-t_2_0" pos="-60" endPos="-1"/>
  <laneAreaDetector file="NUL" freq="1" id="t_1-t_2_1" lane="t_1-t_2_1" pos="-60" endPos="-1"/>
  <laneAreaDetector file="NUL" freq="1" id="t_1-t_2_2" lane="t_1-t_2_2" pos="-60" endPos="-1"/>
  <laneAreaDetector file="NUL" freq="1" id="t_1-t_6_0" lane="t_1-t_6_0" pos="-60" endPos="-1"/>
  <laneAreaDetector file="NUL" freq="1" id="t_1-t_6_1" lane="t_1-t_6_1" pos="-60" endPos="-1"/>
  <laneAreaDetector file="NUL" freq="1" id="t_1-t_6_2" lane="t_1-t_6_2" pos="-60" endPos="-1"/>
  <laneAreaDetector file="NUL" freq="1" id="t_2-t_1_0" lane="t_2-t_1_0" pos="-60" endPos="-1"/>
  <laneAreaDetector file="NUL" freq="1" id="t_2-t_1_1" lane="t_2-t_1_1" pos="-60" endPos="-1"/>
  <laneAreaDetector file="NUL" freq="1" id="t_2-t_1_2" lane="t_2-t_1_2" pos="-60" endPos="-1"/>
  <laneAreaDetector file="NUL" freq="1" id="t_2-t_3_0" lane="t_2-t_3_0" pos="-60" endPos="-1"/>
  <laneAreaDetector file="NUL" freq="1" id="t_2-t_3_1" lane="t_2-t_3_1" pos="-60" endPos="-1"/>
  <laneAreaDetector file="NUL" freq="1" id="t_2-t_3_2" lane="t_2-t_3_2" pos="-60" endPos="-1"/>
  <laneAreaDetector file="NUL" freq="1" id="t_2-t_7_0" lane="t_2-t_7_0" pos="-60" endPos="-1"/>
  <laneAreaDetector file="NUL" freq="1" id="t_2-t_7_1" lane="t_2-t_7_1" pos="-60" endPos="-1"/>
  <laneAreaDetector file="NUL" freq="1" id="t_2-t_7_2" lane="t_2-t_7_2" pos="-60" endPos="-1"/>
  <laneAreaDetector file="NUL" freq="1" id="t_3-t_2_0" lane="t_3-t_2_0" pos="-60" endPos="-1"/>
  <laneAreaDetector file="NUL" freq="1" id="t_3-t_2_1" lane="t_3-t_2_1" pos="-60" endPos="-1"/>
  <laneAreaDetector file="NUL" freq="1" id="t_3-t_2_2" lane="t_3-t_2_2" pos="-60" endPos="-1"/>
  <laneAreaDetector file="NUL" freq="1" id="t_3-t_4_0" lane="t_3-t_4_0" pos="-60" endPos="-1"/>
  <laneAreaDetector file="NUL" freq="1" id="t_3-t_4_1" lane="t_3-t_4_1" pos="-60" endPos="-1"/>
  <laneAreaDetector file="NUL" freq="1" id="t_3-t_4_2" lane="t_3-t_4_2" pos="-60" endPos="-1"/>
  <laneAreaDetector file="NUL" freq="1" id="t_3-t_8_0" lane="t_3-t_8_0" pos="-60" endPos="-1"/>
  <laneAreaDetector file="NUL" freq="1" id="t_3-t_8_1" lane="t_3-t_8_1" pos="-60" endPos="-1"/>
  <laneAreaDetector file="NUL" freq="1" id="t_3-t_8_2" lane="t_3-t_8_2" pos="-60" endPos="-1"/>
  <laneAreaDetector file="NUL" freq="1" id="t_4-t_3_0" lane="t_4-t_3_0" pos="-60" endPos="-1"/>
  <laneAreaDetector file="NUL" freq="1" id="t_4-t_3_1" lane="t_4-t_3_1" pos="-60" endPos="-1"/>
  <laneAreaDetector file="NUL" freq="1" id="t_4-t_3_2" lane="t_4-t_3_2" pos="-60" endPos="-1"/>
  <laneAreaDetector file="NUL" freq="1" id="t_4-t_9_0" lane="t_4-t_9_0" pos="-60" endPos="-1"/>
  <laneAreaDetector file="NUL" freq="1" id="t_4-t_9_1" lane="t_4-t_9_1" pos="-60" endPos="-1"/>
  <laneAreaDetector file="NUL" freq="1" id="t_4-t_9_2" lane="t_4-t_9_2" pos="-60" endPos="-1"/>
  <laneAreaDetector file="NUL" freq="1" id="t_5-t_0_0" lane="t_5-t_0_0" pos="-60" endPos="-1"/>
  <laneAreaDetector file="NUL" freq="1" id="t_5-t_0_1" lane="t_5-t_0_1" pos="-60" endPos="-1"/>
  <laneAreaDetector file="NUL" freq="1" id="t_5-t_0_2" lane="t_5-t_0_2" pos="-60" endPos="-1"/>
  <laneAreaDetector file="NUL" freq="1" id="t_5-t_6_0" lane="t_5-t_6_0" pos="-60" endPos="-1"/>
  <laneAreaDetector file="NUL" freq="1" id="t_5-t_6_1" lane="t_5-t_6_1" pos="-60" endPos="-1"/>
  <laneAreaDetector file="NUL" freq="1" id="t_5-t_6_2" lane="t_5-t_6_2" pos="-60" endPos="-1"/>
  <laneAreaDetector file="NUL" freq="1" id="t_5-t_10_0" lane="t_5-t_10_0" pos="-60" endPos="-1"/>
  <laneAreaDetector file="NUL" freq="1" id="t_5-t_10_1" lane="t_5-t_10_1" pos="-60" endPos="-1"/>
  <laneAreaDetector file="NUL" freq="1" id="t_5-t_10_2" lane="t_5-t_10_2" pos="-60" endPos="-1"/>
  <laneAreaDetector file="NUL" freq="1" id="t_6-t_1_0" lane="t_6-t_1_0" pos="-60" endPos="-1"/>
  <laneAreaDetector file="NUL" freq="1" id="t_6-t_1_1" lane="t_6-t_1_1" pos="-60" endPos="-1"/>
  <laneAreaDetector file="NUL" freq="1" id="t_6-t_1_2" lane="t_6-t_1_2" pos="-60" endPos="-1"/>
  <laneAreaDetector file="NUL" freq="1" id="t_6-t_5_0" lane="t_6-t_5_0" pos="-60" endPos="-1"/>
  <laneAreaDetector file="NUL" freq="1" id="t_6-t_5_1" lane="t_6-t_5_1" pos="-60" endPos="-1"/>
  <laneAreaDetector file="NUL" freq="1" id="t_6-t_5_2" lane="t_6-t_5_2" pos="-60" endPos="-1"/>
  <laneAreaDetector file="NUL" freq="1" id="t_6-t_7_0" lane="t_6-t_7_0" pos="-60" endPos="-1"/>
  <laneAreaDetector file="NUL" freq="1" id="t_6-t_7_1" lane="t_6-t_7_1" pos="-60" endPos="-1"/>
  <laneAreaDetector file="NUL" freq="1" id="t_6-t_7_2" lane="t_6-t_7_2" pos="-60" endPos="-1"/>
  <laneAreaDetector file="NUL" freq="1" id="t_6-t_11_0" lane="t_6-t_11_0" pos="-60" endPos="-1"/>
  <laneAreaDetector file="NUL" freq="1" id="t_6-t_11_1" lane="t_6-t_11_1" pos="-60" endPos="-1"/>
  <laneAreaDetector file="NUL" freq="1" id="t_6-t_11_2" lane="t_6-t_11_2" pos="-60" endPos="-1"/>
  <laneAreaDetector file="NUL" freq="1" id="t_7-t_2_0" lane="t_7-t_2_0" pos="-60" endPos="-1"/>
  <laneAreaDetector file="NUL" freq="1" id="t_7-t_2_1" lane="t_7-t_2_1" pos="-60" endPos="-1"/>
  <laneAreaDetector file="NUL" freq="1" id="t_7-t_2_2" lane="t_7-t_2_2" pos="-60" endPos="-1"/>
  <laneAreaDetector file="NUL" freq="1" id="t_7-t_6_0" lane="t_7-t_6_0" pos="-60" endPos="-1"/>
  <laneAreaDetector file="NUL" freq="1" id="t_7-t_6_1" lane="t_7-t_6_1" pos="-60" endPos="-1"/>
  <laneAreaDetector file="NUL" freq="1" id="t_7-t_6_2" lane="t_7-t_6_2" pos="-60" endPos="-1"/>
  <laneAreaDetector file="NUL" freq="1" id="t_7-t_8_0" lane="t_7-t_8_0" pos="-60" endPos="-1"/>
  <laneAreaDetector file="NUL" freq="1" id="t_7-t_8_1" lane="t_7-t_8_1" pos="-60" endPos="-1"/>
  <laneAreaDetector file="NUL" freq="1" id="t_7-t_8_2" lane="t_7-t_8_2" pos="-60" endPos="-1"/>
  <laneAreaDetector file="NUL" freq="1" id="t_7-t_12_0" lane="t_7-t_12_0" pos="-60" endPos="-1"/>
  <laneAreaDetector file="NUL" freq="1" id="t_7-t_12_1" lane="t_7-t_12_1" pos="-60" endPos="-1"/>
  <laneAreaDetector file="NUL" freq="1" id="t_7-t_12_2" lane="t_7-t_12_2" pos="-60" endPos="-1"/>
  <laneAreaDetector file="NUL" freq="1" id="t_8-t_3_0" lane="t_8-t_3_0" pos="-60" endPos="-1"/>
  <laneAreaDetector file="NUL" freq="1" id="t_8-t_3_1" lane="t_8-t_3_1" pos="-60" endPos="-1"/>
  <laneAreaDetector file="NUL" freq="1" id="t_8-t_3_2" lane="t_8-t_3_2" pos="-60" endPos="-1"/>
  <laneAreaDetector file="NUL" freq="1" id="t_8-t_7_0" lane="t_8-t_7_0" pos="-60" endPos="-1"/>
  <laneAreaDetector file="NUL" freq="1" id="t_8-t_7_1" lane="t_8-t_7_1" pos="-60" endPos="-1"/>
  <laneAreaDetector file="NUL" freq="1" id="t_8-t_7_2" lane="t_8-t_7_2" pos="-60" endPos="-1"/>
  <laneAreaDetector file="NUL" freq="1" id="t_8-t_9_0" lane="t_8-t_9_0" pos="-60" endPos="-1"/>
  <laneAreaDetector file="NUL" freq="1" id="t_8-t_9_1" lane="t_8-t_9_1" pos="-60" endPos="-1"/>
  <laneAreaDetector file="NUL" freq="1" id="t_8-t_9_2" lane="t_8-t_9_2" pos="-60" endPos="-1"/>
  <laneAreaDetector file="NUL" freq="1" id="t_8-t_13_0" lane="t_8-t_13_0" pos="-60" endPos="-1"/>
  <laneAreaDetector file="NUL" freq="1" id="t_8-t_13_1" lane="t_8-t_13_1" pos="-60" endPos="-1"/>
  <laneAreaDetector file="NUL" freq="1" id="t_8-t_13_2" lane="t_8-t_13_2" pos="-60" endPos="-1"/>
  <laneAreaDetector file="NUL" freq="1" id="t_9-t_4_0" lane="t_9-t_4_0" pos="-60" endPos="-1"/>
  <laneAreaDetector file="NUL" freq="1" id="t_9-t_4_1" lane="t_9-t_4_1" pos="-60" endPos="-1"/>
  <laneAreaDetector file="NUL" freq="1" id="t_9-t_4_2" lane="t_9-t_4_2" pos="-60" endPos="-1"/>
  <laneAreaDetector file="NUL" freq="1" id="t_9-t_8_0" lane="t_9-t_8_0" pos="-60" endPos="-1"/>
  <laneAreaDetector file="NUL" freq="1" id="t_9-t_8_1" lane="t_9-t_8_1" pos="-60" endPos="-1"/>
  <laneAreaDetector file="NUL" freq="1" id="t_9-t_8_2" lane="t_9-t_8_2" pos="-60" endPos="-1"/>
  <laneAreaDetector file="NUL" freq="1" id="t_9-t_14_0" lane="t_9-t_14_0" pos="-60" endPos="-1"/>
  <laneAreaDetector file="NUL" freq="1" id="t_9-t_14_1" lane="t_9-t_14_1" pos="-60" endPos="-1"/>
  <laneAreaDetector file="NUL" freq="1" id="t_9-t_14_2" lane="t_9-t_14_2" pos="-60" endPos="-1"/>
  <laneAreaDetector file="NUL" freq="1" id="t_10-t_5_0" lane="t_10-t_5_0" pos="-60" endPos="-1"/>
  <laneAreaDetector file="NUL" freq="1" id="t_10-t_5_1" lane="t_10-t_5_1" pos="-60" endPos="-1"/>
  <laneAreaDetector file="NUL" freq="1" id="t_10-t_5_2" lane="t_10-t_5_2" pos="-60" endPos="-1"/>
  <laneAreaDetector file="NUL" freq="1" id="t_10-t_11_0" lane="t_10-t_11_0" pos="-60" endPos="-1"/>
  <laneAreaDetector file="NUL" freq="1" id="t_10-t_11_1" lane="t_10-t_11_1" pos="-60" endPos="-1"/>
  <laneAreaDetector file="NUL" freq="1" id="t_10-t_11_2" lane="t_10-t_11_2" pos="-60" endPos="-1"/>
  <laneAreaDetector file="NUL" freq="1" id="t_10-t_18_0" lane="t_10-t_18_0" pos="-60" endPos="-1"/>
  <laneAreaDetector file="NUL" freq="1" id="t_10-t_18_1" lane="t_10-t_18_1" pos="-60" endPos="-1"/>
  <laneAreaDetector file="NUL" freq="1" id="t_10-t_18_2" lane="t_10-t_18_2" pos="-60" endPos="-1"/>
  <laneAreaDetector file="NUL" freq="1" id="t_11-t_6_0" lane="t_11-t_6_0" pos="-60" endPos="-1"/>
  <laneAreaDetector file="NUL" freq="1" id="t_11-t_6_1" lane="t_11-t_6_1" pos="-60" endPos="-1"/>
  <laneAreaDetector file="NUL" freq="1" id="t_11-t_6_2" lane="t_11-t_6_2" pos="-60" endPos="-1"/>
  <laneAreaDetector file="NUL" freq="1" id="t_11-t_10_0" lane="t_11-t_10_0" pos="-60" endPos="-1"/>
  <laneAreaDetector file="NUL" freq="1" id="t_11-t_10_1" lane="t_11-t_10_1" pos="-60" endPos="-1"/>
  <laneAreaDetector file="NUL" freq="1" id="t_11-t_10_2" lane="t_11-t_10_2" pos="-60" endPos="-1"/>
  <laneAreaDetector file="NUL" freq="1" id="t_11-t_12_0" lane="t_11-t_12_0" pos="-60" endPos="-1"/>
  <laneAreaDetector file="NUL" freq="1" id="t_11-t_12_1" lane="t_11-t_12_1" pos="-60" endPos="-1"/>
  <laneAreaDetector file="NUL" freq="1" id="t_11-t_12_2" lane="t_11-t_12_2" pos="-60" endPos="-1"/>
  <laneAreaDetector file="NUL" freq="1" id="t_11-t_19_0" lane="t_11-t_19_0" pos="-60" endPos="-1"/>
  <laneAreaDetector file="NUL" freq="1" id="t_11-t_19_1" lane="t_11-t_19_1" pos="-60" endPos="-1"/>
  <laneAreaDetector file="NUL" freq="1" id="t_11-t_19_2" lane="t_11-t_19_2" pos="-60" endPos="-1"/>
  <laneAreaDetector file="NUL" freq="1" id="t_12-t_7_0" lane="t_12-t_7_0" pos="-60" endPos="-1"/>
  <laneAreaDetector file="NUL" freq="1" id="t_12-t_7_1" lane="t_12-t_7_1" pos="-60" endPos="-1"/>
  <laneAreaDetector file="NUL" freq="1" id="t_12-t_7_2" lane="t_12-t_7_2" pos="-60" endPos="-1"/>
  <laneAreaDetector file="NUL" freq="1" id="t_12-t_11_0" lane="t_12-t_11_0" pos="-60" endPos="-1"/>
  <laneAreaDetector file="NUL" freq="1" id="t_12-t_11_1" lane="t_12-t_11_1" pos="-60" endPos="-1"/>
  <laneAreaDetector file="NUL" freq="1" id="t_12-t_11_2" lane="t_12-t_11_2" pos="-60" endPos="-1"/>
  <laneAreaDetector file="NUL" freq="1" id="t_12-t_13_0" lane="t_12-t_13_0" pos="-60" endPos="-1"/>
  <laneAreaDetector file="NUL" freq="1" id="t_12-t_13_1" lane="t_12-t_13_1" pos="-60" endPos="-1"/>
  <laneAreaDetector file="NUL" freq="1" id="t_12-t_13_2" lane="t_12-t_13_2" pos="-60" endPos="-1"/>
  <laneAreaDetector file="NUL" freq="1" id="t_12-t_15_0" lane="t_12-t_15_0" pos="-60" endPos="-1"/>
  <laneAreaDetector file="NUL" freq="1" id="t_12-t_15_1" lane="t_12-t_15_1" pos="-60" endPos="-1"/>
  <laneAreaDetector file="NUL" freq="1" id="t_12-t_15_2" lane="t_12-t_15_2" pos="-60" endPos="-1"/>
  <laneAreaDetector file="NUL" freq="1" id="t_13-t_8_0" lane="t_13-t_8_0" pos="-60" endPos="-1"/>
  <laneAreaDetector file="NUL" freq="1" id="t_13-t_8_1" lane="t_13-t_8_1" pos="-60" endPos="-1"/>
  <laneAreaDetector file="NUL" freq="1" id="t_13-t_8_2" lane="t_13-t_8_2" pos="-60" endPos="-1"/>
  <laneAreaDetector file="NUL" freq="1" id="t_13-t_12_0" lane="t_13-t_12_0" pos="-60" endPos="-1"/>
  <laneAreaDetector file="NUL" freq="1" id="t_13-t_12_1" lane="t_13-t_12_1" pos="-60" endPos="-1"/>
  <laneAreaDetector file="NUL" freq="1" id="t_13-t_12_2" lane="t_13-t_12_2" pos="-60" endPos="-1"/>
  <laneAreaDetector file="NUL" freq="1" id="t_13-t_14_0" lane="t_13-t_14_0" pos="-60" endPos="-1"/>
  <laneAreaDetector file="NUL" freq="1" id="t_13-t_14_1" lane="t_13-t_14_1" pos="-60" endPos="-1"/>
  <laneAreaDetector file="NUL" freq="1" id="t_13-t_14_2" lane="t_13-t_14_2" pos="-60" endPos="-1"/>
  <laneAreaDetector file="NUL" freq="1" id="t_13-t_16_0" lane="t_13-t_16_0" pos="-60" endPos="-1"/>
  <laneAreaDetector file="NUL" freq="1" id="t_13-t_16_1" lane="t_13-t_16_1" pos="-60" endPos="-1"/>
  <laneAreaDetector file="NUL" freq="1" id="t_13-t_16_2" lane="t_13-t_16_2" pos="-60" endPos="-1"/>
  <laneAreaDetector file="NUL" freq="1" id="t_14-t_9_0" lane="t_14-t_9_0" pos="-60" endPos="-1"/>
  <laneAreaDetector file="NUL" freq="1" id="t_14-t_9_1" lane="t_14-t_9_1" pos="-60" endPos="-1"/>
  <laneAreaDetector file="NUL" freq="1" id="t_14-t_9_2" lane="t_14-t_9_2" pos="-60" endPos="-1"/>
  <laneAreaDetector file="NUL" freq="1" id="t_14-t_13_0" lane="t_14-t_13_0" pos="-60" endPos="-1"/>
  <laneAreaDetector file="NUL" freq="1" id="t_14-t_13_1" lane="t_14-t_13_1" pos="-60" endPos="-1"/>
  <laneAreaDetector file="NUL" freq="1" id="t_14-t_13_2" lane="t_14-t_13_2" pos="-60" endPos="-1"/>
  <laneAreaDetector file="NUL" freq="1" id="t_14-t_17_0" lane="t_14-t_17_0" pos="-60" endPos="-1"/>
  <laneAreaDetector file="NUL" freq="1" id="t_14-t_17_1" lane="t_14-t_17_1" pos="-60" endPos="-1"/>
  <laneAreaDetector file="NUL" freq="1" id="t_14-t_17_2" lane="t_14-t_17_2" pos="-60" endPos="-1"/>
  <laneAreaDetector file="NUL" freq="1" id="t_15-t_12_0" lane="t_15-t_12_0" pos="-60" endPos="-1"/>
  <laneAreaDetector file="NUL" freq="1" id="t_15-t_12_1" lane="t_15-t_12_1" pos="-60" endPos="-1"/>
  <laneAreaDetector file="NUL" freq="1" id="t_15-t_12_2" lane="t_15-t_12_2" pos="-60" endPos="-1"/>
  <laneAreaDetector file="NUL" freq="1" id="t_15-t_16_0" lane="t_15-t_16_0" pos="-60" endPos="-1"/>
  <laneAreaDetector file="NUL" freq="1" id="t_15-t_16_1" lane="t_15-t_16_1" pos="-60" endPos="-1"/>
  <laneAreaDetector file="NUL" freq="1" id="t_15-t_16_2" lane="t_15-t_16_2" pos="-60" endPos="-1"/>
  <laneAreaDetector file="NUL" freq="1" id="t_15-t_20_0" lane="t_15-t_20_0" pos="-60" endPos="-1"/>
  <laneAreaDetector file="NUL" freq="1" id="t_15-t_20_1" lane="t_15-t_20_1" pos="-60" endPos="-1"/>
  <laneAreaDetector file="NUL" freq="1" id="t_15-t_20_2" lane="t_15-t_20_2" pos="-60" endPos="-1"/>
  <laneAreaDetector file="NUL" freq="1" id="t_16-t_13_0" lane="t_16-t_13_0" pos="-60" endPos="-1"/>
  <laneAreaDetector file="NUL" freq="1" id="t_16-t_13_1" lane="t_16-t_13_1" pos="-60" endPos="-1"/>
  <laneAreaDetector file="NUL" freq="1" id="t_16-t_13_2" lane="t_16-t_13_2" pos="-60" endPos="-1"/>
  <laneAreaDetector file="NUL" freq="1" id="t_16-t_15_0" lane="t_16-t_15_0" pos="-60" endPos="-1"/>
  <laneAreaDetector file="NUL" freq="1" id="t_16-t_15_1" lane="t_16-t_15_1" pos="-60" endPos="-1"/>
  <laneAreaDetector file="NUL" freq="1" id="t_16-t_15_2" lane="t_16-t_15_2" pos="-60" endPos="-1"/>
  <laneAreaDetector file="NUL" freq="1" id="t_16-t_17_0" lane="t_16-t_17_0" pos="-60" endPos="-1"/>
  <laneAreaDetector file="NUL" freq="1" id="t_16-t_17_1" lane="t_16-t_17_1" pos="-60" endPos="-1"/>
  <laneAreaDetector file="NUL" freq="1" id="t_16-t_17_2" lane="t_16-t_17_2" pos="-60" endPos="-1"/>
  <laneAreaDetector file="NUL" freq="1" id="t_16-t_21_0" lane="t_16-t_21_0" pos="-60" endPos="-1"/>
  <laneAreaDetector file="NUL" freq="1" id="t_16-t_21_1" lane="t_16-t_21_1" pos="-60" endPos="-1"/>
  <laneAreaDetector file="NUL" freq="1" id="t_16-t_21_2" lane="t_16-t_21_2" pos="-60" endPos="-1"/>
  <laneAreaDetector file="NUL" freq="1" id="t_17-t_14_0" lane="t_17-t_14_0" pos="-60" endPos="-1"/>
  <laneAreaDetector file="NUL" freq="1" id="t_17-t_14_1" lane="t_17-t_14_1" pos="-60" endPos="-1"/>
  <laneAreaDetector file="NUL" freq="1" id="t_17-t_14_2" lane="t_17-t_14_2" pos="-60" endPos="-1"/>
  <laneAreaDetector file="NUL" freq="1" id="t_17-t_16_0" lane="t_17-t_16_0" pos="-60" endPos="-1"/>
  <laneAreaDetector file="NUL" freq="1" id="t_17-t_16_1" lane="t_17-t_16_1" pos="-60" endPos="-1"/>
  <laneAreaDetector file="NUL" freq="1" id="t_17-t_16_2" lane="t_17-t_16_2" pos="-60" endPos="-1"/>
  <laneAreaDetector file="NUL" freq="1" id="t_17-t_22_0" lane="t_17-t_22_0" pos="-60" endPos="-1"/>
  <laneAreaDetector file="NUL" freq="1" id="t_17-t_22_1" lane="t_17-t_22_1" pos="-60" endPos="-1"/>
  <laneAreaDetector file="NUL" freq="1" id="t_17-t_22_2" lane="t_17-t_22_2" pos="-60" endPos="-1"/>
  <laneAreaDetector file="NUL" freq="1" id="t_19-t_11_0" lane="t_19-t_11_0" pos="-60" endPos="-1"/>
  <laneAreaDetector file="NUL" freq="1" id="t_19-t_11_1" lane="t_19-t_11_1" pos="-60" endPos="-1"/>
  <laneAreaDetector file="NUL" freq="1" id="t_19-t_11_2" lane="t_19-t_11_2" pos="-60" endPos="-1"/>
  <laneAreaDetector file="NUL" freq="1" id="t_19-t_18_0" lane="t_19-t_18_0" pos="-60" endPos="-1"/>
  <laneAreaDetector file="NUL" freq="1" id="t_19-t_18_1" lane="t_19-t_18_1" pos="-60" endPos="-1"/>
  <laneAreaDetector file="NUL" freq="1" id="t_19-t_18_2" lane="t_19-t_18_2" pos="-60" endPos="-1"/>
  <laneAreaDetector file="NUL" freq="1" id="t_20-t_15_0" lane="t_20-t_15_0" pos="-60" endPos="-1"/>
  <laneAreaDetector file="NUL" freq="1" id="t_20-t_15_1" lane="t_20-t_15_1" pos="-60" endPos="-1"/>
  <laneAreaDetector file="NUL" freq="1" id="t_20-t_15_2" lane="t_20-t_15_2" pos="-60" endPos="-1"/>
  <laneAreaDetector file="NUL" freq="1" id="t_20-t_19_0" lane="t_20-t_19_0" pos="-60" endPos="-1"/>
  <laneAreaDetector file="NUL" freq="1" id="t_20-t_19_1" lane="t_20-t_19_1" pos="-60" endPos="-1"/>
  <laneAreaDetector file="NUL" freq="1" id="t_20-t_19_2" lane="t_20-t_19_2" pos="-60" endPos="-1"/>
  <laneAreaDetector file="NUL" freq="1" id="t_21-t_16_0" lane="t_21-t_16_0" pos="-60" endPos="-1"/>
  <laneAreaDetector file="NUL" freq="1" id="t_21-t_16_1" lane="t_21-t_16_1" pos="-60" endPos="-1"/>
  <laneAreaDetector file="NUL" freq="1" id="t_21-t_16_2" lane="t_21-t_16_2" pos="-60" endPos="-1"/>
  <laneAreaDetector file="NUL" freq="1" id="t_21-t_20_0" lane="t_21-t_20_0" pos="-60" endPos="-1"/>
  <laneAreaDetector file="NUL" freq="1" id="t_21-t_20_1" lane="t_21-t_20_1" pos="-60" endPos="-1"/>
  <laneAreaDetector file="NUL" freq="1" id="t_21-t_20_2" lane="t_21-t_20_2" pos="-60" endPos="-1"/>
  <laneAreaDetector file="NUL" freq="1" id="t_22-t_17_0" lane="t_22-t_17_0" pos="-60" endPos="-1"/>
  <laneAreaDetector file="NUL" freq="1" id="t_22-t_17_1" lane="t_22-t_17_1" pos="-60" endPos="-1"/>
  <laneAreaDetector file="NUL" freq="1" id="t_22-t_17_2" lane="t_22-t_17_2" pos="-60" endPos="-1"/>
  <laneAreaDetector file="NUL" freq="1" id="t_22-t_21_0" lane="t_22-t_21_0" pos="-60" endPos="-1"/>
  <laneAreaDetector file="NUL" freq="1" id="t_22-t_21_1" lane="t_22-t_21_1" pos="-60" endPos="-1"/>
  <laneAreaDetector file="NUL" freq="1" id="t_22-t_21_2" lane="t_22-t_21_2" pos="-60" endPos="-1"/>
  <laneAreaDetector file="NUL" freq="1" id="p_0-t_0_0" lane="p_0-t_0_0" pos="-60" endPos="-1"/>
  <laneAreaDetector file="NUL" freq="1" id="p_0-t_0_1" lane="p_0-t_0_1" pos="-60" endPos="-1"/>
  <laneAreaDetector file="NUL" freq="1" id="p_0-t_0_2" lane="p_0-t_0_2" pos="-60" endPos="-1"/>