<routes>
  <vType id="type1" length="5" maxSpeed="11" accel="5" minGap="2.5" decel="10"/>
  <vType id="emergency1" length="5" accel="5" maxSpeed="20" minGap="2.5"  vClass="emergency" guiShape="emergency"/>
  <vType id="emergency2" length="5" accel="5" maxSpeed="20" minGap="2.5"  vClass="emergency" guiShape="firebrigade"/>
  <vType id="emergency3" length="5" accel="5" maxSpeed="20" minGap="2.5"  vClass="emergency" guiShape="police"/>
  <trip id="emergency1.0" departPos="base" departLane="best" depart="0"  from="p_4-t_4" to="t_18-p_12" type="emergency1"/>
  <trip id="emergency2.0" departPos="base" departLane="best" depart="0"  from="p_9-t_22" to="t_0-p_0" type="emergency2"/>
  <trip id="emergency3.0" departPos="base" departLane="best" depart="0"  from="p_13-t_10" to="t_14-p_7" type="emergency3"/>
  <flow id="f_0_0" departPos="base" departLane="best" from="p_0-t_0" to="t_18-p_12" begin="0" end="400" vehsPerHour="96" type="type1">
  </flow>
  <flow id="f_0_1" departPos="base" departLane="best" from="p_0-t_0" to="t_20-p_11" begin="0" end="400" vehsPerHour="96" type="type1">
  </flow>
  <flow id="f_0_2" departPos="base" departLane="best" from="p_0-t_0" to="t_22-p_10" begin="0" end="400" vehsPerHour="96" type="type1">
  </flow>
  <flow id="f_0_3" departPos="base" departLane="best" from="p_1-t_1" to="t_18-p_12" begin="0" end="400" vehsPerHour="96" type="type1">
  </flow>
  <flow id="f_0_4" departPos="base" departLane="best" from="p_1-t_1" to="t_20-p_11" begin="0" end="400" vehsPerHour="96" type="type1">
  </flow>
  <flow id="f_0_5" departPos="base" departLane="best" from="p_1-t_1" to="t_22-p_10" begin="0" end="400" vehsPerHour="96" type="type1">
  </flow>
  <flow id="f_0_6" departPos="base" departLane="best" from="p_2-t_2" to="t_18-p_12" begin="0" end="400" vehsPerHour="96" type="type1">
  </flow>
  <flow id="f_0_7" departPos="base" departLane="best" from="p_2-t_2" to="t_20-p_11" begin="0" end="400" vehsPerHour="96" type="type1">
  </flow>
  <flow id="f_0_8" departPos="base" departLane="best" from="p_2-t_2" to="t_22-p_10" begin="0" end="400" vehsPerHour="96" type="type1">
  </flow>
  <flow id="f_0_9" departPos="base" departLane="best" from="p_3-t_3" to="t_18-p_12" begin="0" end="400" vehsPerHour="96" type="type1">
  </flow>
  <flow id="f_0_10" departPos="base" departLane="best" from="p_3-t_3" to="t_20-p_11" begin="0" end="400" vehsPerHour="96" type="type1">
  </flow>
  <flow id="f_0_11" departPos="base" departLane="best" from="p_3-t_3" to="t_22-p_10" begin="0" end="400" vehsPerHour="96" type="type1">
  </flow>
  <flow id="f_0_12" departPos="base" departLane="best" from="p_4-t_4" to="t_18-p_12" begin="0" end="400" vehsPerHour="96" type="type1">
  </flow>
  <flow id="f_0_13" departPos="base" departLane="best" from="p_4-t_4" to="t_20-p_11" begin="0" end="400" vehsPerHour="96" type="type1">
  </flow>
  <flow id="f_0_14" departPos="base" departLane="best" from="p_4-t_4" to="t_22-p_10" begin="0" end="400" vehsPerHour="96" type="type1">
  </flow>
  <flow id="f_0_15" departPos="base" departLane="best" from="p_12-t_10" to="t_0-p_0" begin="0" end="400" vehsPerHour="96" type="type1">
  </flow>
  <flow id="f_0_16" departPos="base" departLane="best" from="p_12-t_10" to="t_1-p_1" begin="0" end="400" vehsPerHour="96" type="type1">
  </flow>
  <flow id="f_0_17" departPos="base" departLane="best" from="p_12-t_10" to="t_2-p_2" begin="0" end="400" vehsPerHour="96" type="type1">
  </flow>
  <flow id="f_0_18" departPos="base" departLane="best" from="p_12-t_10" to="t_3-p_3" begin="0" end="400" vehsPerHour="96" type="type1">
  </flow>
  <flow id="f_0_19" departPos="base" departLane="best" from="p_12-t_10" to="t_4-p_4" begin="0" end="400" vehsPerHour="96" type="type1">
  </flow>
  <flow id="f_0_20" departPos="base" departLane="best" from="p_11-t_20" to="t_0-p_0" begin="0" end="400" vehsPerHour="96" type="type1">
  </flow>
  <flow id="f_0_21" departPos="base" departLane="best" from="p_11-t_20" to="t_1-p_1" begin="0" end="400" vehsPerHour="96" type="type1">
  </flow>
  <flow id="f_0_22" departPos="base" departLane="best" from="p_11-t_20" to="t_2-p_2" begin="0" end="400" vehsPerHour="96" type="type1">
  </flow>
  <flow id="f_0_23" departPos="base" departLane="best" from="p_11-t_20" to="t_3-p_3" begin="0" end="400" vehsPerHour="96" type="type1">
  </flow>
  <flow id="f_0_24" departPos="base" departLane="best" from="p_11-t_20" to="t_4-p_4" begin="0" end="400" vehsPerHour="96" type="type1">
  </flow>
  <flow id="f_0_25" departPos="base" departLane="best" from="p_10-t_22" to="t_0-p_0" begin="0" end="400" vehsPerHour="96" type="type1">
  </flow>
  <flow id="f_0_26" departPos="base" departLane="best" from="p_10-t_22" to="t_1-p_1" begin="0" end="400" vehsPerHour="96" type="type1">
  </flow>
  <flow id="f_0_27" departPos="base" departLane="best" from="p_10-t_22" to="t_2-p_2" begin="0" end="400" vehsPerHour="96" type="type1">
  </flow>
  <flow id="f_0_28" departPos="base" departLane="best" from="p_10-t_22" to="t_3-p_3" begin="0" end="400" vehsPerHour="96" type="type1">
  </flow>
  <flow id="f_0_29" departPos="base" departLane="best" from="p_10-t_22" to="t_4-p_4" begin="0" end="400" vehsPerHour="96" type="type1">
  </flow>
  <flow id="f_0_30" departPos="base" departLane="best" from="p_5-t_4" to="t_0-p_15" begin="0" end="400" vehsPerHour="96" type="type1">
  </flow>
  <flow id="f_0_31" departPos="base" departLane="best" from="p_5-t_4" to="t_5-p_14" begin="0" end="400" vehsPerHour="96" type="type1">
  </flow>
  <flow id="f_0_32" departPos="base" departLane="best" from="p_5-t_4" to="t_10-p_13" begin="0" end="400" vehsPerHour="96" type="type1">
  </flow>
  <flow id="f_0_33" departPos="base" departLane="best" from="p_6-t_9" to="t_0-p_15" begin="0" end="400" vehsPerHour="96" type="type1">
  </flow>
  <flow id="f_0_34" departPos="base" departLane="best" from="p_6-t_9" to="t_5-p_14" begin="0" end="400" vehsPerHour="96" type="type1">
  </flow>
  <flow id="f_0_35" departPos="base" departLane="best" from="p_6-t_9" to="t_10-p_13" begin="0" end="400" vehsPerHour="96" type="type1">
  </flow>
  <flow id="f_0_36" departPos="base" departLane="best" from="p_7-t_14" to="t_0-p_15" begin="0" end="400" vehsPerHour="96" type="type1">
  </flow>
  <flow id="f_0_37" departPos="base" departLane="best" from="p_7-t_14" to="t_5-p_14" begin="0" end="400" vehsPerHour="96" type="type1">
  </flow>
  <flow id="f_0_38" departPos="base" departLane="best" from="p_7-t_14" to="t_10-p_13" begin="0" end="400" vehsPerHour="96" type="type1">
  </flow>
  <flow id="f_0_39" departPos="base" departLane="best" from="p_8-t_17" to="t_0-p_15" begin="0" end="400" vehsPerHour="96" type="type1">
  </flow>
  <flow id="f_0_40" departPos="base" departLane="best" from="p_8-t_17" to="t_5-p_14" begin="0" end="400" vehsPerHour="96" type="type1">
  </flow>
  <flow id="f_0_41" departPos="base" departLane="best" from="p_8-t_17" to="t_10-p_13" begin="0" end="400" vehsPerHour="96" type="type1">
  </flow>
  <flow id="f_0_42" departPos="base" departLane="best" from="p_9-t_22" to="t_0-p_15" begin="0" end="400" vehsPerHour="96" type="type1">
  </flow>
  <flow id="f_0_43" departPos="base" departLane="best" from="p_9-t_22" to="t_5-p_14" begin="0" end="400" vehsPerHour="96" type="type1">
  </flow>
  <flow id="f_0_44" departPos="base" departLane="best" from="p_9-t_22" to="t_10-p_13" begin="0" end="400" vehsPerHour="96" type="type1">
  </flow>
  <flow id="f_0_45" departPos="base" departLane="best" from="p_15-t_0" to="t_4-p_5" begin="0" end="400" vehsPerHour="96" type="type1">
  </flow>
  <flow id="f_0_46" departPos="base" departLane="best" from="p_15-t_0" to="t_9-p_6" begin="0" end="400" vehsPerHour="96" type="type1">
  </flow>
  <flow id="f_0_47" departPos="base" departLane="best" from="p_15-t_0" to="t_14-p_7" begin="0" end="400" vehsPerHour="96" type="type1">
  </flow>
  <flow id="f_0_48" departPos="base" departLane="best" from="p_15-t_0" to="t_17-p_8" begin="0" end="400" vehsPerHour="96" type="type1">
  </flow>
  <flow id="f_0_49" departPos="base" departLane="best" from="p_15-t_0" to="t_22-p_9" begin="0" end="400" vehsPerHour="96" type="type1">
  </flow>
  <flow id="f_0_50" departPos="base" departLane="best" from="p_14-t_5" to="t_4-p_5" begin="0" end="400" vehsPerHour="96" type="type1">
  </flow>
  <flow id="f_0_51" departPos="base" departLane="best" from="p_14-t_5" to="t_9-p_6" begin="0" end="400" vehsPerHour="96" type="type1">
  </flow>
  <flow id="f_0_52" departPos="base" departLane="best" from="p_14-t_5" to="t_14-p_7" begin="0" end="400" vehsPerHour="96" type="type1">
  </flow>
  <flow id="f_0_53" departPos="base" departLane="best" from="p_14-t_5" to="t_17-p_8" begin="0" end="400" vehsPerHour="96" type="type1">
  </flow>
  <flow id="f_0_54" departPos="base" departLane="best" from="p_14-t_5" to="t_22-p_9" begin="0" end="400" vehsPerHour="96" type="type1">
  </flow>
  <flow id="f_0_55" departPos="base" departLane="best" from="p_13-t_10" to="t_4-p_5" begin="0" end="400" vehsPerHour="96" type="type1">
  </flow>
  <flow id="f_0_56" departPos="base" departLane="best" from="p_13-t_10" to="t_9-p_6" begin="0" end="400" vehsPerHour="96" type="type1">
  </flow>
  <flow id="f_0_57" departPos="base" departLane="best" from="p_13-t_10" to="t_14-p_7" begin="0" end="400" vehsPerHour="96" type="type1">
  </flow>
  <flow id="f_0_58" departPos="base" departLane="best" from="p_13-t_10" to="t_17-p_8" begin="0" end="400" vehsPerHour="96" type="type1">
  </flow>
  <flow id="f_0_59" departPos="base" departLane="best" from="p_13-t_10" to="t_22-p_9" begin="0" end="400" vehsPerHour="96" type="type1">
  </flow>
  <trip id="emergency1.1" departPos="base" departLane="best" depart="50"  from="p_4-t_4" to="t_18-p_12" type="emergency1"/>
  <flow id="f_1_0" departPos="base" departLane="best" from="p_0-t_0" to="t_18-p_12" begin="400" end="800" vehsPerHour="120" type="type1">
  </flow>
  <flow id="f_1_1" departPos="base" departLane="best" from="p_0-t_0" to="t_20-p_11" begin="400" end="800" vehsPerHour="120" type="type1">
  </flow>
  <flow id="f_1_2" departPos="base" departLane="best" from="p_0-t_0" to="t_22-p_10" begin="400" end="800" vehsPerHour="120" type="type1">
  </flow>
  <flow id="f_1_3" departPos="base" departLane="best" from="p_1-t_1" to="t_18-p_12" begin="400" end="800" vehsPerHour="120" type="type1">
  </flow>
  <flow id="f_1_4" departPos="base" departLane="best" from="p_1-t_1" to="t_20-p_11" begin="400" end="800" vehsPerHour="120" type="type1">
  </flow>
  <flow id="f_1_5" departPos="base" departLane="best" from="p_1-t_1" to="t_22-p_10" begin="400" end="800" vehsPerHour="120" type="type1">
  </flow>
  <flow id="f_1_6" departPos="base" departLane="best" from="p_2-t_2" to="t_18-p_12" begin="400" end="800" vehsPerHour="120" type="type1">
  </flow>
  <flow id="f_1_7" departPos="base" departLane="best" from="p_2-t_2" to="t_20-p_11" begin="400" end="800" vehsPerHour="120" type="type1">
  </flow>
  <flow id="f_1_8" departPos="base" departLane="best" from="p_2-t_2" to="t_22-p_10" begin="400" end="800" vehsPerHour="120" type="type1">
  </flow>
  <flow id="f_1_9" departPos="base" departLane="best" from="p_3-t_3" to="t_18-p_12" begin="400" end="800" vehsPerHour="120" type="type1">
  </flow>
  <flow id="f_1_10" departPos="base" departLane="best" from="p_3-t_3" to="t_20-p_11" begin="400" end="800" vehsPerHour="120" type="type1">
  </flow>
  <flow id="f_1_11" departPos="base" departLane="best" from="p_3-t_3" to="t_22-p_10" begin="400" end="800" vehsPerHour="120" type="type1">
  </flow>
  <flow id="f_1_12" departPos="base" departLane="best" from="p_4-t_4" to="t_18-p_12" begin="400" end="800" vehsPerHour="120" type="type1">
  </flow>
  <flow id="f_1_13" departPos="base" departLane="best" from="p_4-t_4" to="t_20-p_11" begin="400" end="800" vehsPerHour="120" type="type1">
  </flow>
  <flow id="f_1_14" departPos="base" departLane="best" from="p_4-t_4" to="t_22-p_10" begin="400" end="800" vehsPerHour="120" type="type1">
  </flow>
  <flow id="f_1_15" departPos="base" departLane="best" from="p_12-t_10" to="t_0-p_0" begin="400" end="800" vehsPerHour="120" type="type1">
  </flow>
  <flow id="f_1_16" departPos="base" departLane="best" from="p_12-t_10" to="t_1-p_1" begin="400" end="800" vehsPerHour="120" type="type1">
  </flow>
  <flow id="f_1_17" departPos="base" departLane="best" from="p_12-t_10" to="t_2-p_2" begin="400" end="800" vehsPerHour="120" type="type1">
  </flow>
  <flow id="f_1_18" departPos="base" departLane="best" from="p_12-t_10" to="t_3-p_3" begin="400" end="800" vehsPerHour="120" type="type1">
  </flow>
  <flow id="f_1_19" departPos="base" departLane="best" from="p_12-t_10" to="t_4-p_4" begin="400" end="800" vehsPerHour="120" type="type1">
  </flow>
  <flow id="f_1_20" departPos="base" departLane="best" from="p_11-t_20" to="t_0-p_0" begin="400" end="800" vehsPerHour="120" type="type1">
  </flow>
  <flow id="f_1_21" departPos="base" departLane="best" from="p_11-t_20" to="t_1-p_1" begin="400" end="800" vehsPerHour="120" type="type1">
  </flow>
  <flow id="f_1_22" departPos="base" departLane="best" from="p_11-t_20" to="t_2-p_2" begin="400" end="800" vehsPerHour="120" type="type1">
  </flow>
  <flow id="f_1_23" departPos="base" departLane="best" from="p_11-t_20" to="t_3-p_3" begin="400" end="800" vehsPerHour="120" type="type1">
  </flow>
  <flow id="f_1_24" departPos="base" departLane="best" from="p_11-t_20" to="t_4-p_4" begin="400" end="800" vehsPerHour="120" type="type1">
  </flow>
  <flow id="f_1_25" departPos="base" departLane="best" from="p_10-t_22" to="t_0-p_0" begin="400" end="800" vehsPerHour="120" type="type1">
  </flow>
  <flow id="f_1_26" departPos="base" departLane="best" from="p_10-t_22" to="t_1-p_1" begin="400" end="800" vehsPerHour="120" type="type1">
  </flow>
  <flow id="f_1_27" departPos="base" departLane="best" from="p_10-t_22" to="t_2-p_2" begin="400" end="800" vehsPerHour="120" type="type1">
  </flow>
  <flow id="f_1_28" departPos="base" departLane="best" from="p_10-t_22" to="t_3-p_3" begin="400" end="800" vehsPerHour="120" type="type1">
  </flow>
  <flow id="f_1_29" departPos="base" departLane="best" from="p_10-t_22" to="t_4-p_4" begin="400" end="800" vehsPerHour="120" type="type1">
  </flow>
  <flow id="f_1_30" departPos="base" departLane="best" from="p_5-t_4" to="t_0-p_15" begin="400" end="800" vehsPerHour="120" type="type1">
  </flow>
  <flow id="f_1_31" departPos="base" departLane="best" from="p_5-t_4" to="t_5-p_14" begin="400" end="800" vehsPerHour="120" type="type1">
  </flow>
  <flow id="f_1_32" departPos="base" departLane="best" from="p_5-t_4" to="t_10-p_13" begin="400" end="800" vehsPerHour="120" type="type1">
  </flow>
  <flow id="f_1_33" departPos="base" departLane="best" from="p_6-t_9" to="t_0-p_15" begin="400" end="800" vehsPerHour="120" type="type1">
  </flow>
  <flow id="f_1_34" departPos="base" departLane="best" from="p_6-t_9" to="t_5-p_14" begin="400" end="800" vehsPerHour="120" type="type1">
  </flow>
  <flow id="f_1_35" departPos="base" departLane="best" from="p_6-t_9" to="t_10-p_13" begin="400" end="800" vehsPerHour="120" type="type1">
  </flow>
  <flow id="f_1_36" departPos="base" departLane="best" from="p_7-t_14" to="t_0-p_15" begin="400" end="800" vehsPerHour="120" type="type1">
  </flow>
  <flow id="f_1_37" departPos="base" departLane="best" from="p_7-t_14" to="t_5-p_14" begin="400" end="800" vehsPerHour="120" type="type1">
  </flow>
  <flow id="f_1_38" departPos="base" departLane="best" from="p_7-t_14" to="t_10-p_13" begin="400" end="800" vehsPerHour="120" type="type1">
  </flow>
  <flow id="f_1_39" departPos="base" departLane="best" from="p_8-t_17" to="t_0-p_15" begin="400" end="800" vehsPerHour="120" type="type1">
  </flow>
  <flow id="f_1_40" departPos="base" departLane="best" from="p_8-t_17" to="t_5-p_14" begin="400" end="800" vehsPerHour="120" type="type1">
  </flow>
  <flow id="f_1_41" departPos="base" departLane="best" from="p_8-t_17" to="t_10-p_13" begin="400" end="800" vehsPerHour="120" type="type1">
  </flow>
  <flow id="f_1_42" departPos="base" departLane="best" from="p_9-t_22" to="t_0-p_15" begin="400" end="800" vehsPerHour="120" type="type1">
  </flow>
  <flow id="f_1_43" departPos="base" departLane="best" from="p_9-t_22" to="t_5-p_14" begin="400" end="800" vehsPerHour="120" type="type1">
  </flow>
  <flow id="f_1_44" departPos="base" departLane="best" from="p_9-t_22" to="t_10-p_13" begin="400" end="800" vehsPerHour="120" type="type1">
  </flow>
  <flow id="f_1_45" departPos="base" departLane="best" from="p_15-t_0" to="t_4-p_5" begin="400" end="800" vehsPerHour="120" type="type1">
  </flow>
  <flow id="f_1_46" departPos="base" departLane="best" from="p_15-t_0" to="t_9-p_6" begin="400" end="800" vehsPerHour="120" type="type1">
  </flow>
  <flow id="f_1_47" departPos="base" departLane="best" from="p_15-t_0" to="t_14-p_7" begin="400" end="800" vehsPerHour="120" type="type1">
  </flow>
  <flow id="f_1_48" departPos="base" departLane="best" from="p_15-t_0" to="t_17-p_8" begin="400" end="800" vehsPerHour="120" type="type1">
  </flow>
  <flow id="f_1_49" departPos="base" departLane="best" from="p_15-t_0" to="t_22-p_9" begin="400" end="800" vehsPerHour="120" type="type1">
  </flow>
  <flow id="f_1_50" departPos="base" departLane="best" from="p_14-t_5" to="t_4-p_5" begin="400" end="800" vehsPerHour="120" type="type1">
  </flow>
  <flow id="f_1_51" departPos="base" departLane="best" from="p_14-t_5" to="t_9-p_6" begin="400" end="800" vehsPerHour="120" type="type1">
  </flow>
  <flow id="f_1_52" departPos="base" departLane="best" from="p_14-t_5" to="t_14-p_7" begin="400" end="800" vehsPerHour="120" type="type1">
  </flow>
  <flow id="f_1_53" departPos="base" departLane="best" from="p_14-t_5" to="t_17-p_8" begin="400" end="800" vehsPerHour="120" type="type1">
  </flow>
  <flow id="f_1_54" departPos="base" departLane="best" from="p_14-t_5" to="t_22-p_9" begin="400" end="800" vehsPerHour="120" type="type1">
  </flow>
  <flow id="f_1_55" departPos="base" departLane="best" from="p_13-t_10" to="t_4-p_5" begin="400" end="800" vehsPerHour="120" type="type1">
  </flow>
  <flow id="f_1_56" departPos="base" departLane="best" from="p_13-t_10" to="t_9-p_6" begin="400" end="800" vehsPerHour="120" type="type1">
  </flow>
  <flow id="f_1_57" departPos="base" departLane="best" from="p_13-t_10" to="t_14-p_7" begin="400" end="800" vehsPerHour="120" type="type1">
  </flow>
  <flow id="f_1_58" departPos="base" departLane="best" from="p_13-t_10" to="t_17-p_8" begin="400" end="800" vehsPerHour="120" type="type1">
  </flow>
  <flow id="f_1_59" departPos="base" departLane="best" from="p_13-t_10" to="t_22-p_9" begin="400" end="800" vehsPerHour="120" type="type1">
  </flow>
  <trip id="emergency1.2" departPos="base" departLane="best" depart="500"  from="p_4-t_4" to="t_18-p_12" type="emergency1"/>
  <trip id="emergency2.1" departPos="base" departLane="best" depart="500"  from="p_9-t_22" to="t_0-p_0" type="emergency2"/>
  <trip id="emergency3.1" departPos="base" departLane="best" depart="500"  from="p_13-t_10" to="t_14-p_7" type="emergency3"/>
  <trip id="emergency2.2" departPos="base" departLane="best" depart="550"  from="p_9-t_22" to="t_0-p_0" type="emergency2"/>
  <flow id="f_2_0" departPos="base" departLane="best" from="p_0-t_0" to="t_18-p_12" begin="800" end="1200" vehsPerHour="96" type="type1">
  </flow>
  <flow id="f_2_1" departPos="base" departLane="best" from="p_0-t_0" to="t_20-p_11" begin="800" end="1200" vehsPerHour="96" type="type1">
  </flow>
  <flow id="f_2_2" departPos="base" departLane="best" from="p_0-t_0" to="t_22-p_10" begin="800" end="1200" vehsPerHour="96" type="type1">
  </flow>
  <flow id="f_2_3" departPos="base" departLane="best" from="p_1-t_1" to="t_18-p_12" begin="800" end="1200" vehsPerHour="96" type="type1">
  </flow>
  <flow id="f_2_4" departPos="base" departLane="best" from="p_1-t_1" to="t_20-p_11" begin="800" end="1200" vehsPerHour="96" type="type1">
  </flow>
  <flow id="f_2_5" departPos="base" departLane="best" from="p_1-t_1" to="t_22-p_10" begin="800" end="1200" vehsPerHour="96" type="type1">
  </flow>
  <flow id="f_2_6" departPos="base" departLane="best" from="p_2-t_2" to="t_18-p_12" begin="800" end="1200" vehsPerHour="96" type="type1">
  </flow>
  <flow id="f_2_7" departPos="base" departLane="best" from="p_2-t_2" to="t_20-p_11" begin="800" end="1200" vehsPerHour="96" type="type1">
  </flow>
  <flow id="f_2_8" departPos="base" departLane="best" from="p_2-t_2" to="t_22-p_10" begin="800" end="1200" vehsPerHour="96" type="type1">
  </flow>
  <flow id="f_2_9" departPos="base" departLane="best" from="p_3-t_3" to="t_18-p_12" begin="800" end="1200" vehsPerHour="96" type="type1">
  </flow>
  <flow id="f_2_10" departPos="base" departLane="best" from="p_3-t_3" to="t_20-p_11" begin="800" end="1200" vehsPerHour="96" type="type1">
  </flow>
  <flow id="f_2_11" departPos="base" departLane="best" from="p_3-t_3" to="t_22-p_10" begin="800" end="1200" vehsPerHour="96" type="type1">
  </flow>
  <flow id="f_2_12" departPos="base" departLane="best" from="p_4-t_4" to="t_18-p_12" begin="800" end="1200" vehsPerHour="96" type="type1">
  </flow>
  <flow id="f_2_13" departPos="base" departLane="best" from="p_4-t_4" to="t_20-p_11" begin="800" end="1200" vehsPerHour="96" type="type1">
  </flow>
  <flow id="f_2_14" departPos="base" departLane="best" from="p_4-t_4" to="t_22-p_10" begin="800" end="1200" vehsPerHour="96" type="type1">
  </flow>
  <flow id="f_2_15" departPos="base" departLane="best" from="p_12-t_10" to="t_0-p_0" begin="800" end="1200" vehsPerHour="96" type="type1">
  </flow>
  <flow id="f_2_16" departPos="base" departLane="best" from="p_12-t_10" to="t_1-p_1" begin="800" end="1200" vehsPerHour="96" type="type1">
  </flow>
  <flow id="f_2_17" departPos="base" departLane="best" from="p_12-t_10" to="t_2-p_2" begin="800" end="1200" vehsPerHour="96" type="type1">
  </flow>
  <flow id="f_2_18" departPos="base" departLane="best" from="p_12-t_10" to="t_3-p_3" begin="800" end="1200" vehsPerHour="96" type="type1">
  </flow>
  <flow id="f_2_19" departPos="base" departLane="best" from="p_12-t_10" to="t_4-p_4" begin="800" end="1200" vehsPerHour="96" type="type1">
  </flow>
  <flow id="f_2_20" departPos="base" departLane="best" from="p_11-t_20" to="t_0-p_0" begin="800" end="1200" vehsPerHour="96" type="type1">
  </flow>
  <flow id="f_2_21" departPos="base" departLane="best" from="p_11-t_20" to="t_1-p_1" begin="800" end="1200" vehsPerHour="96" type="type1">
  </flow>
  <flow id="f_2_22" departPos="base" departLane="best" from="p_11-t_20" to="t_2-p_2" begin="800" end="1200" vehsPerHour="96" type="type1">
  </flow>
  <flow id="f_2_23" departPos="base" departLane="best" from="p_11-t_20" to="t_3-p_3" begin="800" end="1200" vehsPerHour="96" type="type1">
  </flow>
  <flow id="f_2_24" departPos="base" departLane="best" from="p_11-t_20" to="t_4-p_4" begin="800" end="1200" vehsPerHour="96" type="type1">
  </flow>
  <flow id="f_2_25" departPos="base" departLane="best" from="p_10-t_22" to="t_0-p_0" begin="800" end="1200" vehsPerHour="96" type="type1">
  </flow>
  <flow id="f_2_26" departPos="base" departLane="best" from="p_10-t_22" to="t_1-p_1" begin="800" end="1200" vehsPerHour="96" type="type1">
  </flow>
  <flow id="f_2_27" departPos="base" departLane="best" from="p_10-t_22" to="t_2-p_2" begin="800" end="1200" vehsPerHour="96" type="type1">
  </flow>
  <flow id="f_2_28" departPos="base" departLane="best" from="p_10-t_22" to="t_3-p_3" begin="800" end="1200" vehsPerHour="96" type="type1">
  </flow>
  <flow id="f_2_29" departPos="base" departLane="best" from="p_10-t_22" to="t_4-p_4" begin="800" end="1200" vehsPerHour="96" type="type1">
  </flow>
  <flow id="f_2_30" departPos="base" departLane="best" from="p_5-t_4" to="t_0-p_15" begin="800" end="1200" vehsPerHour="96" type="type1">
  </flow>
  <flow id="f_2_31" departPos="base" departLane="best" from="p_5-t_4" to="t_5-p_14" begin="800" end="1200" vehsPerHour="96" type="type1">
  </flow>
  <flow id="f_2_32" departPos="base" departLane="best" from="p_5-t_4" to="t_10-p_13" begin="800" end="1200" vehsPerHour="96" type="type1">
  </flow>
  <flow id="f_2_33" departPos="base" departLane="best" from="p_6-t_9" to="t_0-p_15" begin="800" end="1200" vehsPerHour="96" type="type1">
  </flow>
  <flow id="f_2_34" departPos="base" departLane="best" from="p_6-t_9" to="t_5-p_14" begin="800" end="1200" vehsPerHour="96" type="type1">
  </flow>
  <flow id="f_2_35" departPos="base" departLane="best" from="p_6-t_9" to="t_10-p_13" begin="800" end="1200" vehsPerHour="96" type="type1">
  </flow>
  <flow id="f_2_36" departPos="base" departLane="best" from="p_7-t_14" to="t_0-p_15" begin="800" end="1200" vehsPerHour="96" type="type1">
  </flow>
  <flow id="f_2_37" departPos="base" departLane="best" from="p_7-t_14" to="t_5-p_14" begin="800" end="1200" vehsPerHour="96" type="type1">
  </flow>
  <flow id="f_2_38" departPos="base" departLane="best" from="p_7-t_14" to="t_10-p_13" begin="800" end="1200" vehsPerHour="96" type="type1">
  </flow>
  <flow id="f_2_39" departPos="base" departLane="best" from="p_8-t_17" to="t_0-p_15" begin="800" end="1200" vehsPerHour="96" type="type1">
  </flow>
  <flow id="f_2_40" departPos="base" departLane="best" from="p_8-t_17" to="t_5-p_14" begin="800" end="1200" vehsPerHour="96" type="type1">
  </flow>
  <flow id="f_2_41" departPos="base" departLane="best" from="p_8-t_17" to="t_10-p_13" begin="800" end="1200" vehsPerHour="96" type="type1">
  </flow>
  <flow id="f_2_42" departPos="base" departLane="best" from="p_9-t_22" to="t_0-p_15" begin="800" end="1200" vehsPerHour="96" type="type1">
  </flow>
  <flow id="f_2_43" departPos="base" departLane="best" from="p_9-t_22" to="t_5-p_14" begin="800" end="1200" vehsPerHour="96" type="type1">
  </flow>
  <flow id="f_2_44" departPos="base" departLane="best" from="p_9-t_22" to="t_10-p_13" begin="800" end="1200" vehsPerHour="96" type="type1">
  </flow>
  <flow id="f_2_45" departPos="base" departLane="best" from="p_15-t_0" to="t_4-p_5" begin="800" end="1200" vehsPerHour="96" type="type1">
  </flow>
  <flow id="f_2_46" departPos="base" departLane="best" from="p_15-t_0" to="t_9-p_6" begin="800" end="1200" vehsPerHour="96" type="type1">
  </flow>
  <flow id="f_2_47" departPos="base" departLane="best" from="p_15-t_0" to="t_14-p_7" begin="800" end="1200" vehsPerHour="96" type="type1">
  </flow>
  <flow id="f_2_48" departPos="base" departLane="best" from="p_15-t_0" to="t_17-p_8" begin="800" end="1200" vehsPerHour="96" type="type1">
  </flow>
  <flow id="f_2_49" departPos="base" departLane="best" from="p_15-t_0" to="t_22-p_9" begin="800" end="1200" vehsPerHour="96" type="type1">
  </flow>
  <flow id="f_2_50" departPos="base" departLane="best" from="p_14-t_5" to="t_4-p_5" begin="800" end="1200" vehsPerHour="96" type="type1">
  </flow>
  <flow id="f_2_51" departPos="base" departLane="best" from="p_14-t_5" to="t_9-p_6" begin="800" end="1200" vehsPerHour="96" type="type1">
  </flow>
  <flow id="f_2_52" departPos="base" departLane="best" from="p_14-t_5" to="t_14-p_7" begin="800" end="1200" vehsPerHour="96" type="type1">
  </flow>
  <flow id="f_2_53" departPos="base" departLane="best" from="p_14-t_5" to="t_17-p_8" begin="800" end="1200" vehsPerHour="96" type="type1">
  </flow>
  <flow id="f_2_54" departPos="base" departLane="best" from="p_14-t_5" to="t_22-p_9" begin="800" end="1200" vehsPerHour="96" type="type1">
  </flow>
  <flow id="f_2_55" departPos="base" departLane="best" from="p_13-t_10" to="t_4-p_5" begin="800" end="1200" vehsPerHour="96" type="type1">
  </flow>
  <flow id="f_2_56" departPos="base" departLane="best" from="p_13-t_10" to="t_9-p_6" begin="800" end="1200" vehsPerHour="96" type="type1">
  </flow>
  <flow id="f_2_57" departPos="base" departLane="best" from="p_13-t_10" to="t_14-p_7" begin="800" end="1200" vehsPerHour="96" type="type1">
  </flow>
  <flow id="f_2_58" departPos="base" departLane="best" from="p_13-t_10" to="t_17-p_8" begin="800" end="1200" vehsPerHour="96" type="type1">
  </flow>
  <flow id="f_2_59" departPos="base" departLane="best" from="p_13-t_10" to="t_22-p_9" begin="800" end="1200" vehsPerHour="96" type="type1">
  </flow>
  <trip id="emergency1.3" departPos="base" departLane="best" depart="1000"  from="p_4-t_4" to="t_18-p_12" type="emergency1"/>
  <trip id="emergency2.3" departPos="base" departLane="best" depart="1000"  from="p_9-t_22" to="t_0-p_0" type="emergency2"/>
  <trip id="emergency3.2" departPos="base" departLane="best" depart="1000"  from="p_13-t_10" to="t_14-p_7" type="emergency3"/>
  <trip id="emergency3.3" departPos="base" departLane="best" depart="1050"  from="p_13-t_10" to="t_14-p_7" type="emergency3"/>
</routes>
