<?xml version="1.0" encoding="UTF-8"?>

<!-- generated on 2023-02-25 21:58:12 by Eclipse SUMO duarouter Version 1.12.0
<configuration xmlns:xsi="http://www.w3.org/2001/XMLSchema-instance" xsi:noNamespaceSchemaLocation="http://sumo.dlr.de/xsd/duarouterConfiguration.xsd">

    <input>
        <net-file value="C:\Users\gx213\Sumo\2023-02-25-21-58-06\osm.net.xml"/>
        <route-files value="C:\Users\gx213\Sumo\2023-02-25-21-58-06\osm.passenger.trips.xml"/>
    </input>

    <output>
        <output-file value="C:\Users\gx213\Sumo\2023-02-25-21-58-06\osm.passenger.trips.xml.tmp"/>
        <write-trips value="true"/>
    </output>

    <time>
        <begin value="0"/>
        <end value="3600"/>
    </time>

    <report>
        <no-warnings value="true"/>
        <ignore-errors value="true"/>
        <no-step-log value="true"/>
    </report>

</configuration>
-->

<routes xmlns:xsi="http://www.w3.org/2001/XMLSchema-instance" xsi:noNamespaceSchemaLocation="http://sumo.dlr.de/xsd/routes_file.xsd">
    <vType id="veh_passenger" vClass="passenger"/>
    <trip id="veh0" type="veh_passenger" depart="0.00" departLane="best" from="421293960#5" to="-222475187#0"/>
    <trip id="veh2" type="veh_passenger" depart="8.14" departLane="best" departSpeed="max" from="296531348#0" to="-296531347#1"/>
    <trip id="veh3" type="veh_passenger" depart="12.21" departLane="best" from="-522168393#3" to="346586011#7"/>
    <trip id="veh4" type="veh_passenger" depart="16.28" departLane="best" from="-168951299#4" to="-522168396#3"/>
    <trip id="veh7" type="veh_passenger" depart="28.49" departLane="best" from="522168359#5" to="-113467391#2"/>
    <trip id="veh8" type="veh_passenger" depart="32.57" departLane="best" from="522168359#4" to="522150715#1"/>
    <trip id="veh9" type="veh_passenger" depart="36.64" departLane="best" from="1034985480#1" to="-522168359#10"/>
    <trip id="veh10" type="veh_passenger" depart="40.71" departLane="best" from="834571214" to="296531347#2"/>
    <trip id="veh13" type="veh_passenger" depart="52.92" departLane="best" departSpeed="max" from="346585849#0" to="834632248#3"/>
    <trip id="veh15" type="veh_passenger" depart="61.06" departLane="best" from="582781422#0" to="421293960#6"/>
    <trip id="veh16" type="veh_passenger" depart="65.13" departLane="best" departSpeed="max" from="489797907#0" to="-421293959#0"/>
    <trip id="veh19" type="veh_passenger" depart="77.34" departLane="best" from="-421293960#6" to="1003491654#2"/>
    <trip id="veh20" type="veh_passenger" depart="81.41" departLane="best" from="421293960#3" to="296531349#1"/>
    <trip id="veh21" type="veh_passenger" depart="85.48" departLane="best" departSpeed="max" from="154351789#0" to="-582781422#0"/>
    <trip id="veh22" type="veh_passenger" depart="89.56" departLane="best" departSpeed="max" from="-621254374#4" to="832170011#3"/>
    <trip id="veh23" type="veh_passenger" depart="93.63" departLane="best" from="-522150725#1" to="296531349#5"/>
    <trip id="veh24" type="veh_passenger" depart="97.70" departLane="best" departSpeed="max" from="992985722#0" to="489797907#2"/>
    <trip id="veh26" type="veh_passenger" depart="105.84" departLane="best" from="-522168396#2" to="-421293955#0"/>
    <trip id="veh27" type="veh_passenger" depart="109.91" departLane="best" from="-806468840" to="1003491654#2"/>
    <trip id="veh28" type="veh_passenger" depart="113.98" departLane="best" from="-522168392#3" to="832170011#3"/>
    <trip id="veh29" type="veh_passenger" depart="118.05" departLane="best" from="621254374#1" to="222475179#1"/>
    <trip id="veh33" type="veh_passenger" depart="134.33" departLane="best" from="346586011#3" to="-834632249"/>
    <trip id="veh36" type="veh_passenger" depart="146.55" departLane="best" from="992985722#1" to="346586011#7"/>
    <trip id="veh37" type="veh_passenger" depart="150.62" departLane="best" from="-421293960#3" to="-421293959#1"/>
    <trip id="veh39" type="veh_passenger" depart="158.76" departLane="best" from="522150725#3" to="337620190#0"/>
    <trip id="veh40" type="veh_passenger" depart="162.83" departLane="best" from="-421293955#1" to="296531349#5"/>
    <trip id="veh41" type="veh_passenger" depart="166.90" departLane="best" departSpeed="max" from="992985722#0" to="356718231#8"/>
    <trip id="veh42" type="veh_passenger" depart="170.97" departLane="best" from="970332260#1" to="621254374#4"/>
    <trip id="veh43" type="veh_passenger" depart="175.04" departLane="best" departSpeed="max" from="-1003491654#2" to="522168359#2"/>
    <trip id="veh44" type="veh_passenger" depart="179.11" departLane="best" departSpeed="max" from="-621254374#4" to="489797907#3"/>
    <trip id="veh45" type="veh_passenger" depart="183.18" departLane="best" from="-519650757#1" to="337620190#0"/>
    <trip id="veh46" type="veh_passenger" depart="187.25" departLane="best" from="296531349#2" to="832170011#3"/>
    <trip id="veh47" type="veh_passenger" depart="191.32" departLane="best" from="621254374#0" to="-834632249"/>
    <trip id="veh48" type="veh_passenger" depart="195.39" departLane="best" departSpeed="max" from="337620231#0" to="-522168392#3"/>
    <trip id="veh51" type="veh_passenger" depart="207.61" departLane="best" from="522150714#1" to="356718231#8"/>
    <trip id="veh52" type="veh_passenger" depart="211.68" departLane="best" departSpeed="max" from="522150720" to="356718231#8"/>
    <trip id="veh53" type="veh_passenger" depart="215.75" departLane="best" from="-1003491654#0" to="222475187#0"/>
    <trip id="veh54" type="veh_passenger" depart="219.82" departLane="best" from="-113467391#3" to="832170011#2"/>
    <trip id="veh55" type="veh_passenger" depart="223.89" departLane="best" from="621254374#1" to="587814424#0"/>
    <trip id="veh57" type="veh_passenger" depart="232.03" departLane="best" from="621254374#1" to="832170011#3"/>
    <trip id="veh59" type="veh_passenger" depart="240.17" departLane="best" from="-421293956" to="522168392#3"/>
    <trip id="veh60" type="veh_passenger" depart="244.24" departLane="best" departSpeed="max" from="296531351" to="421293958"/>
    <trip id="veh61" type="veh_passenger" depart="248.31" departLane="best" departSpeed="max" from="296531348#0" to="-582781422#0"/>
    <trip id="veh62" type="veh_passenger" depart="252.38" departLane="best" departSpeed="max" from="346585849#0" to="522168359#6"/>
    <trip id="veh63" type="veh_passenger" depart="256.45" departLane="best" departSpeed="max" from="-522168362#7" to="222475179#1"/>
    <trip id="veh65" type="veh_passenger" depart="264.60" departLane="best" from="296531348#4" to="356718231#2"/>
    <trip id="veh69" type="veh_passenger" depart="280.88" departLane="best" from="-421293958" to="489797905#0"/>
    <trip id="veh71" type="veh_passenger" depart="289.02" departLane="best" from="582781415#0" to="-421293960#0"/>
    <trip id="veh73" type="veh_passenger" depart="297.16" departLane="best" from="-522168393#0" to="-522150720"/>
    <trip id="veh74" type="veh_passenger" depart="301.23" departLane="best" departSpeed="max" from="832170011#0" to="421293960#3"/>
    <trip id="veh75" type="veh_passenger" depart="305.30" departLane="best" departSpeed="max" from="296531351" to="522168397"/>
    <trip id="veh76" type="veh_passenger" depart="309.37" departLane="best" from="-421293960#5" to="337620190#0"/>
    <trip id="veh77" type="veh_passenger" depart="313.44" departLane="best" departSpeed="max" from="296531348#0" to="337620190#0"/>
    <trip id="veh79" type="veh_passenger" depart="321.59" departLane="best" departSpeed="max" from="296531348#0" to="296531347#2"/>
    <trip id="veh81" type="veh_passenger" depart="329.73" departLane="best" from="-522168362#1" to="337620190#0"/>
    <trip id="veh82" type="veh_passenger" depart="333.80" departLane="best" departSpeed="max" from="296531348#0" to="1034985480#1"/>
    <trip id="veh83" type="veh_passenger" depart="337.87" departLane="best" departSpeed="max" from="-541904540#3" to="690430797#4"/>
    <trip id="veh84" type="veh_passenger" depart="341.94" departLane="best" from="296531348#5" to="621254374#4"/>
    <trip id="veh85" type="veh_passenger" depart="346.01" departLane="best" departSpeed="max" from="346585849#0" to="-421293959#3"/>
    <trip id="veh86" type="veh_passenger" depart="350.08" departLane="best" from="992985722#1" to="587814424#0"/>
    <trip id="veh87" type="veh_passenger" depart="354.15" departLane="best" from="836077258" to="806468839"/>
    <trip id="veh88" type="veh_passenger" depart="358.22" departLane="best" departSpeed="max" from="296531351" to="-621254374#0"/>
    <trip id="veh89" type="veh_passenger" depart="362.29" departLane="best" from="168951298#1" to="970332260#2"/>
    <trip id="veh90" type="veh_passenger" depart="366.36" departLane="best" departSpeed="max" from="-621254374#4" to="522168397"/>
    <trip id="veh91" type="veh_passenger" depart="370.43" departLane="best" from="296531349#2" to="337620190#0"/>
    <trip id="veh92" type="veh_passenger" depart="374.51" departLane="best" from="834571214" to="970332260#2"/>
    <trip id="veh93" type="veh_passenger" depart="378.58" departLane="best" from="346586011#0" to="522168359#1"/>
    <trip id="veh94" type="veh_passenger" depart="382.65" departLane="best" from="-522150722#4" to="168951298#1"/>
    <trip id="veh95" type="veh_passenger" depart="386.72" departLane="best" from="836077258" to="421293960#7"/>
    <trip id="veh96" type="veh_passenger" depart="390.79" departLane="best" departSpeed="max" from="346585849#0" to="522168362#2"/>
    <trip id="veh98" type="veh_passenger" depart="398.93" departLane="best" departSpeed="max" from="337620231#0" to="621254374#0"/>
    <trip id="veh100" type="veh_passenger" depart="407.07" departLane="best" from="-522168397" to="-522150715#0"/>
    <trip id="veh104" type="veh_passenger" depart="423.35" departLane="best" from="337620231#9" to="832170011#3"/>
    <trip id="veh105" type="veh_passenger" depart="427.42" departLane="best" from="-541904540#1" to="296531349#5"/>
    <trip id="veh107" type="veh_passenger" depart="435.57" departLane="best" from="-834632248#0" to="522168362#2"/>
    <trip id="veh108" type="veh_passenger" depart="439.64" departLane="best" from="-421293958" to="337620190#0"/>
    <trip id="veh109" type="veh_passenger" depart="443.71" departLane="best" from="992985722#1" to="970332260#2"/>
    <trip id="veh110" type="veh_passenger" depart="447.78" departLane="best" from="-421293959#0" to="-621254374#0"/>
    <trip id="veh111" type="veh_passenger" depart="451.85" departLane="best" departSpeed="max" from="-621254374#4" to="832170011#2"/>
    <trip id="veh113" type="veh_passenger" depart="459.99" departLane="best" departSpeed="max" from="154351789#0" to="-522168359#2"/>
    <trip id="veh114" type="veh_passenger" depart="464.06" departLane="best" from="522168393#1" to="522150722#5"/>
    <trip id="veh115" type="veh_passenger" depart="468.13" departLane="best" from="421293959#5" to="970332260#2"/>
    <trip id="veh117" type="veh_passenger" depart="476.27" departLane="best" from="522168360#0" to="168951298#2"/>
    <trip id="veh120" type="veh_passenger" depart="488.49" departLane="best" from="489797907#2" to="-522168397"/>
    <trip id="veh121" type="veh_passenger" depart="492.56" departLane="best" from="421293960#3" to="1003491654#0"/>
    <trip id="veh122" type="veh_passenger" depart="496.63" departLane="best" from="522168396#0" to="-489797906"/>
    <trip id="veh123" type="veh_passenger" depart="500.70" departLane="best" departSpeed="max" from="296531348#0" to="1003491654#2"/>
    <trip id="veh124" type="veh_passenger" depart="504.77" departLane="best" departSpeed="max" from="-1003491654#2" to="522168394#3"/>
    <trip id="veh125" type="veh_passenger" depart="508.84" departLane="best" from="421293960#4" to="-834632249"/>
    <trip id="veh126" type="veh_passenger" depart="512.91" departLane="best" from="519650757#1" to="421293958"/>
    <trip id="veh127" type="veh_passenger" depart="516.98" departLane="best" from="296531348#2" to="-113467391#2"/>
    <trip id="veh131" type="veh_passenger" depart="533.26" departLane="best" from="522168359#0" to="621254374#4"/>
    <trip id="veh136" type="veh_passenger" depart="553.62" departLane="best" from="-522150722#4" to="832170011#2"/>
    <trip id="veh137" type="veh_passenger" depart="557.69" departLane="best" from="587814425#0" to="834632248#3"/>
    <trip id="veh139" type="veh_passenger" depart="565.83" departLane="best" from="-168951299#2" to="522168360#1"/>
    <trip id="veh140" type="veh_passenger" depart="569.90" departLane="best" departSpeed="max" from="-834632248#3" to="832170011#2"/>
    <trip id="veh141" type="veh_passenger" depart="573.97" departLane="best" from="522168359#2" to="621254374#4"/>
    <trip id="veh142" type="veh_passenger" depart="578.04" departLane="best" from="522168359#6" to="1003491654#2"/>
    <trip id="veh144" type="veh_passenger" depart="586.18" departLane="best" from="587814425#3" to="621254374#2"/>
    <trip id="veh145" type="veh_passenger" depart="590.25" departLane="best" from="-522168394#3" to="582781422#0"/>
    <trip id="veh146" type="veh_passenger" depart="594.32" departLane="best" from="296531349#3" to="168951299#1"/>
    <trip id="veh148" type="veh_passenger" depart="602.47" departLane="best" from="-168951299#2" to="-522168395"/>
    <trip id="veh149" type="veh_passenger" depart="606.54" departLane="best" departSpeed="max" from="-834632248#3" to="621254374#4"/>
    <trip id="veh150" type="veh_passenger" depart="610.61" departLane="best" from="834632249" to="1034985480#1"/>
    <trip id="veh151" type="veh_passenger" depart="614.68" departLane="best" from="421293960#6" to="296531349#5"/>
    <trip id="veh153" type="veh_passenger" depart="622.82" departLane="best" from="970332260#1" to="-522168392#3"/>
    <trip id="veh154" type="veh_passenger" depart="626.89" departLane="best" from="834632248#2" to="1003491654#0"/>
    <trip id="veh155" type="veh_passenger" depart="630.96" departLane="best" from="-489797905#1" to="337620190#0"/>
    <trip id="veh156" type="veh_passenger" depart="635.03" departLane="best" departSpeed="max" from="519650757#0" to="222475179#1"/>
    <trip id="veh157" type="veh_passenger" depart="639.10" departLane="best" from="421293959#1" to="346586011#7"/>
    <trip id="veh158" type="veh_passenger" depart="643.17" departLane="best" from="168951298#4" to="421293960#6"/>
    <trip id="veh159" type="veh_passenger" depart="647.24" departLane="best" from="-582781415#4" to="522150725#2"/>
    <trip id="veh160" type="veh_passenger" depart="651.31" departLane="best" from="-1003491654#0" to="690430797#4"/>
    <trip id="veh161" type="veh_passenger" depart="655.38" departLane="best" departSpeed="max" from="346585849#0" to="522168359#2"/>
    <trip id="veh162" type="veh_passenger" depart="659.46" departLane="best" departSpeed="max" from="154351789#0" to="-421293960#0"/>
    <trip id="veh164" type="veh_passenger" depart="667.60" departLane="best" from="-806468840" to="587814425#2"/>
    <trip id="veh165" type="veh_passenger" depart="671.67" departLane="best" from="489797907#3" to="168951298#2"/>
    <trip id="veh167" type="veh_passenger" depart="679.81" departLane="best" departSpeed="max" from="296531348#0" to="168951298#1"/>
    <trip id="veh168" type="veh_passenger" depart="683.88" departLane="best" departSpeed="max" from="-519650757#5" to="337620190#0"/>
    <trip id="veh171" type="veh_passenger" depart="696.09" departLane="best" from="-1003491654#0" to="113467391#3"/>
    <trip id="veh172" type="veh_passenger" depart="700.16" departLane="best" from="296531348#2" to="421293960#7"/>
    <trip id="veh174" type="veh_passenger" depart="708.30" departLane="best" from="296531348#5" to="-621254374#0"/>
    <trip id="veh176" type="veh_passenger" depart="716.45" departLane="best" from="-421293959#6" to="346586011#7"/>
    <trip id="veh177" type="veh_passenger" depart="720.52" departLane="best" from="421293960#2" to="296531347#2"/>
    <trip id="veh179" type="veh_passenger" depart="728.66" departLane="best" departSpeed="max" from="-522168362#7" to="-168951299#4"/>
    <trip id="veh180" type="veh_passenger" depart="732.73" departLane="best" departSpeed="max" from="-541904540#3" to="337620231#5"/>
    <trip id="veh182" type="veh_passenger" depart="740.87" departLane="best" departSpeed="max" from="-522168362#7" to="522150715#0"/>
    <trip id="veh184" type="veh_passenger" depart="749.01" departLane="best" from="519650760" to="522168394#0"/>
    <trip id="veh185" type="veh_passenger" depart="753.08" departLane="best" from="-489797905#1" to="337620190#0"/>
    <trip id="veh186" type="veh_passenger" depart="757.15" departLane="best" from="-522168359#10" to="832170011#3"/>
    <trip id="veh187" type="veh_passenger" depart="761.22" departLane="best" from="337620231#6" to="-421293959#3"/>
    <trip id="veh188" type="veh_passenger" depart="765.29" departLane="best" departSpeed="max" from="-541904540#3" to="587814425#2"/>
    <trip id="veh189" type="veh_passenger" depart="769.36" departLane="best" from="296531349#2" to="582781415#0"/>
    <trip id="veh191" type="veh_passenger" depart="777.51" departLane="best" from="421293955#2" to="832170011#3"/>
    <trip id="veh193" type="veh_passenger" depart="785.65" departLane="best" from="489797907#2" to="346586011#5"/>
    <trip id="veh194" type="veh_passenger" depart="789.72" departLane="best" from="522168392#3" to="421293956"/>
    <trip id="veh196" type="veh_passenger" depart="797.86" departLane="best" departSpeed="max" from="296531351" to="-834632248#2"/>
    <trip id="veh197" type="veh_passenger" depart="801.93" departLane="best" departSpeed="max" from="-541904540#3" to="489797906"/>
    <trip id="veh198" type="veh_passenger" depart="806.00" departLane="best" from="522150715#1" to="356718231#3"/>
    <trip id="veh199" type="veh_passenger" depart="810.07" departLane="best" departSpeed="max" from="421293960#0" to="1003491654#2"/>
    <trip id="veh200" type="veh_passenger" depart="814.14" departLane="best" from="-421293959#1" to="113467391#3"/>
    <trip id="veh201" type="veh_passenger" depart="818.21" departLane="best" departSpeed="max" from="-621254374#4" to="222475179#1"/>
    <trip id="veh202" type="veh_passenger" depart="822.28" departLane="best" departSpeed="max" from="346585849#0" to="-522150722#7"/>
    <trip id="veh203" type="veh_passenger" depart="826.35" departLane="best" from="-522168396#3" to="522150714#1"/>
    <trip id="veh204" type="veh_passenger" depart="830.43" departLane="best" departSpeed="max" from="489797907#0" to="-421293960#0"/>
    <trip id="veh205" type="veh_passenger" depart="834.50" departLane="best" departSpeed="max" from="296531348#0" to="421293955#2"/>
    <trip id="veh206" type="veh_passenger" depart="838.57" departLane="best" departSpeed="max" from="296531348#0" to="-541904540#1"/>
    <trip id="veh208" type="veh_passenger" depart="846.71" departLane="best" from="356718231#3" to="522150715#0"/>
    <trip id="veh209" type="veh_passenger" depart="850.78" departLane="best" from="541904540#0" to="522168393#1"/>
    <trip id="veh210" type="veh_passenger" depart="854.85" departLane="best" from="168951298#1" to="-113467391#2"/>
    <trip id="veh211" type="veh_passenger" depart="858.92" departLane="best" departSpeed="max" from="113467391#0" to="522168362#2"/>
    <trip id="veh212" type="veh_passenger" depart="862.99" departLane="best" from="522168396#5" to="832170011#3"/>
    <trip id="veh213" type="veh_passenger" depart="867.06" departLane="best" departSpeed="max" from="296531348#0" to="522168362#2"/>
    <trip id="veh216" type="veh_passenger" depart="879.27" departLane="best" from="296531348#3" to="-222475187#1"/>
    <trip id="veh218" type="veh_passenger" depart="887.42" departLane="best" departSpeed="max" from="296531348#0" to="-522168359#5"/>
    <trip id="veh219" type="veh_passenger" depart="891.49" departLane="best" departSpeed="max" from="296531351" to="-522150720"/>
    <trip id="veh220" type="veh_passenger" depart="895.56" departLane="best" departSpeed="max" from="421293960#0" to="-222475187#0"/>
    <trip id="veh221" type="veh_passenger" depart="899.63" departLane="best" from="222475187#0" to="421293959#7"/>
    <trip id="veh222" type="veh_passenger" depart="903.70" departLane="best" from="-168951299#4" to="489797907#3"/>
    <trip id="veh223" type="veh_passenger" depart="907.77" departLane="best" departSpeed="max" from="-519650763" to="337620190#0"/>
    <trip id="veh224" type="veh_passenger" depart="911.84" departLane="best" departSpeed="max" from="-296531347#2" to="296531349#5"/>
    <trip id="veh225" type="veh_passenger" depart="915.91" departLane="best" from="-522168392#3" to="222475187#1"/>
    <trip id="veh226" type="veh_passenger" depart="919.98" departLane="best" from="522150714#1" to="296531349#5"/>
    <trip id="veh227" type="veh_passenger" depart="924.05" departLane="best" from="519650760" to="587814424#0"/>
    <trip id="veh228" type="veh_passenger" depart="928.12" departLane="best" departSpeed="max" from="-541904540#3" to="-421293960#6"/>
    <trip id="veh229" type="veh_passenger" depart="932.19" departLane="best" from="-113467391#3" to="421293955#1"/>
    <trip id="veh230" type="veh_passenger" depart="936.26" departLane="best" from="992985722#1" to="296531348#3"/>
    <trip id="veh233" type="veh_passenger" depart="948.48" departLane="best" departSpeed="max" from="832170011#0" to="-522168396#3"/>
    <trip id="veh234" type="veh_passenger" depart="952.55" departLane="best" from="-168951299#1" to="-522168359#0"/>
    <trip id="veh235" type="veh_passenger" depart="956.62" departLane="best" from="346586011#4" to="-621254374#2"/>
    <trip id="veh236" type="veh_passenger" depart="960.69" departLane="best" from="489797905#0" to="522168393#3"/>
    <trip id="veh238" type="veh_passenger" depart="968.83" departLane="best" from="522168360#1" to="834632248#2"/>
    <trip id="veh240" type="veh_passenger" depart="976.97" departLane="best" from="834571214" to="296531349#5"/>
    <trip id="veh241" type="veh_passenger" depart="981.04" departLane="best" departSpeed="max" from="489797907#0" to="-421293960#3"/>
    <trip id="veh242" type="veh_passenger" depart="985.11" departLane="best" departSpeed="max" from="487757053" to="487757053"/>
    <trip id="veh243" type="veh_passenger" depart="989.18" departLane="best" from="-421293960#7" to="522168394#3"/>
    <trip id="veh245" type="veh_passenger" depart="997.32" departLane="best" departSpeed="max" from="-519650757#5" to="970332260#1"/>
    <trip id="veh246" type="veh_passenger" depart="1001.40" departLane="best" from="522150722#0" to="296531348#2"/>
    <trip id="veh247" type="veh_passenger" depart="1005.47" departLane="best" departSpeed="max" from="337620231#0" to="296531347#2"/>
    <trip id="veh248" type="veh_passenger" depart="1009.54" departLane="best" from="522168396#3" to="587814424#0"/>
    <trip id="veh249" type="veh_passenger" depart="1013.61" departLane="best" from="-489797905#0" to="834632248#0"/>
    <trip id="veh250" type="veh_passenger" depart="1017.68" departLane="best" from="421293960#3" to="587814424#0"/>
    <trip id="veh251" type="veh_passenger" depart="1021.75" departLane="best" departSpeed="max" from="489797907#0" to="337620190#0"/>
    <trip id="veh252" type="veh_passenger" depart="1025.82" departLane="best" departSpeed="max" from="519650757#0" to="834632248#2"/>
    <trip id="veh253" type="veh_passenger" depart="1029.89" departLane="best" departSpeed="max" from="-621254374#4" to="582781416"/>
    <trip id="veh254" type="veh_passenger" depart="1033.96" departLane="best" departSpeed="max" from="346585849#0" to="346585849#0"/>
    <trip id="veh255" type="veh_passenger" depart="1038.03" departLane="best" from="296531348#3" to="522168359#6"/>
    <trip id="veh256" type="veh_passenger" depart="1042.10" departLane="best" departSpeed="max" from="-621254374#4" to="587814425#3"/>
    <trip id="veh257" type="veh_passenger" depart="1046.17" departLane="best" from="522168392#3" to="-489797905#0"/>
    <trip id="veh260" type="veh_passenger" depart="1058.39" departLane="best" from="168951298#1" to="-222475187#1"/>
    <trip id="veh261" type="veh_passenger" depart="1062.46" departLane="best" from="-522168392#3" to="541904540#2"/>
    <trip id="veh262" type="veh_passenger" depart="1066.53" departLane="best" from="489797905#1" to="1003491654#2"/>
    <trip id="veh263" type="veh_passenger" depart="1070.60" departLane="best" departSpeed="max" from="-1003491654#2" to="832170011#3"/>
    <trip id="veh269" type="veh_passenger" depart="1095.02" departLane="best" from="356718231#2" to="337620231#5"/>
    <trip id="veh270" type="veh_passenger" depart="1099.09" departLane="best" departSpeed="max" from="346585849#0" to="337620190#0"/>
    <trip id="veh271" type="veh_passenger" depart="1103.16" departLane="best" from="519650757#4" to="296531347#2"/>
    <trip id="veh272" type="veh_passenger" depart="1107.23" departLane="best" from="489797906" to="1003491654#2"/>
    <trip id="veh273" type="veh_passenger" depart="1111.30" departLane="best" departSpeed="max" from="-541904540#3" to="-522150715#0"/>
    <trip id="veh274" type="veh_passenger" depart="1115.38" departLane="best" departSpeed="max" from="-522168362#7" to="-522150715#0"/>
    <trip id="veh275" type="veh_passenger" depart="1119.45" departLane="best" departSpeed="max" from="346585849#0" to="522168393#0"/>
    <trip id="veh276" type="veh_passenger" depart="1123.52" departLane="best" from="-522168359#5" to="-621254374#1"/>
    <trip id="veh277" type="veh_passenger" depart="1127.59" departLane="best" departSpeed="max" from="296531351" to="522168359#4"/>
    <trip id="veh280" type="veh_passenger" depart="1139.80" departLane="best" from="-522168359#3" to="-113467391#2"/>
    <trip id="veh281" type="veh_passenger" depart="1143.87" departLane="best" departSpeed="max" from="346585849#0" to="1003491654#2"/>
    <trip id="veh282" type="veh_passenger" depart="1147.94" departLane="best" departSpeed="max" from="992985721" to="421293959#0"/>
    <trip id="veh283" type="veh_passenger" depart="1152.01" departLane="best" from="489797905#0" to="-522150720"/>
    <trip id="veh284" type="veh_passenger" depart="1156.08" departLane="best" from="587814425#3" to="421293960#5"/>
    <trip id="veh285" type="veh_passenger" depart="1160.15" departLane="best" departSpeed="max" from="832170011#0" to="337620231#6"/>
    <trip id="veh286" type="veh_passenger" depart="1164.22" departLane="best" from="522168361#0" to="296531349#5"/>
    <trip id="veh288" type="veh_passenger" depart="1172.37" departLane="best" departSpeed="max" from="-296531347#2" to="-522150730#1"/>
    <trip id="veh289" type="veh_passenger" depart="1176.44" departLane="best" from="346586011#3" to="168951299#1"/>
    <trip id="veh290" type="veh_passenger" depart="1180.51" departLane="best" departSpeed="max" from="992985722#0" to="-522150715#0"/>
    <trip id="veh293" type="veh_passenger" depart="1192.72" departLane="best" from="337620231#8" to="337620190#0"/>
    <trip id="veh294" type="veh_passenger" depart="1196.79" departLane="best" from="296531348#5" to="621254374#4"/>
    <trip id="veh295" type="veh_passenger" depart="1200.86" departLane="best" departSpeed="max" from="992985722#0" to="168951299#1"/>
    <trip id="veh297" type="veh_passenger" depart="1209.00" departLane="best" from="519650757#1" to="832170011#3"/>
    <trip id="veh298" type="veh_passenger" depart="1213.07" departLane="best" from="-522168392#2" to="-582781422#0"/>
    <trip id="veh300" type="veh_passenger" depart="1221.21" departLane="best" departSpeed="max" from="-1003491654#2" to="337620190#0"/>
    <trip id="veh302" type="veh_passenger" depart="1229.36" departLane="best" from="-522168396#3" to="522150725#2"/>
    <trip id="veh303" type="veh_passenger" depart="1233.43" departLane="best" from="489797906" to="337620190#0"/>
    <trip id="veh307" type="veh_passenger" depart="1249.71" departLane="best" departSpeed="max" from="296531348#0" to="421293955#3"/>
    <trip id="veh309" type="veh_passenger" depart="1257.85" departLane="best" from="522168363" to="-421293960#0"/>
    <trip id="veh310" type="veh_passenger" depart="1261.92" departLane="best" from="-522150725#2" to="168951299#2"/>
    <trip id="veh311" type="veh_passenger" depart="1265.99" departLane="best" from="519650758" to="421293960#3"/>
    <trip id="veh314" type="veh_passenger" depart="1278.20" departLane="best" departSpeed="max" from="832170011#0" to="346586011#4"/>
    <trip id="veh316" type="veh_passenger" depart="1286.35" departLane="best" departSpeed="max" from="-222475179#2" to="337620190#0"/>
    <trip id="veh317" type="veh_passenger" depart="1290.42" departLane="best" from="-421293960#3" to="834632248#0"/>
    <trip id="veh318" type="veh_passenger" depart="1294.49" departLane="best" from="522168393#3" to="421293960#5"/>
    <trip id="veh319" type="veh_passenger" depart="1298.56" departLane="best" departSpeed="max" from="832170011#0" to="992985722#1"/>
    <trip id="veh321" type="veh_passenger" depart="1306.70" departLane="best" departSpeed="max" from="-222475179#2" to="522168363"/>
    <trip id="veh324" type="veh_passenger" depart="1318.91" departLane="best" from="356718231#3" to="489797905#1"/>
    <trip id="veh326" type="veh_passenger" depart="1327.05" departLane="best" departSpeed="max" from="113467391#0" to="296531347#2"/>
    <trip id="veh328" type="veh_passenger" depart="1335.19" departLane="best" departSpeed="max" from="-834632248#3" to="522150714#1"/>
    <trip id="veh330" type="veh_passenger" depart="1343.34" departLane="best" from="522168359#8" to="421293958"/>
    <trip id="veh331" type="veh_passenger" depart="1347.41" departLane="best" from="296531349#2" to="222475179#1"/>
    <trip id="veh332" type="veh_passenger" depart="1351.48" departLane="best" departSpeed="max" from="296531348#0" to="346586011#7"/>
    <trip id="veh334" type="veh_passenger" depart="1359.62" departLane="best" departSpeed="max" from="346585849#0" to="336383234#1"/>